data_benNO2
_audit_creation_date              2013-05-06
_audit_creation_method            'Materials Studio'
_symmetry_space_group_name_H-M    'P1'
_symmetry_Int_Tables_number       1
_symmetry_cell_setting            triclinic
loop_
_symmetry_equiv_pos_as_xyz
  x,y,z
_cell_length_a                    9.840000144139096
_cell_length_b                    9.84000014413909600000
_cell_length_c                    14.99999781972419655144
_cell_angle_alpha                 90
_cell_angle_beta                  90
_cell_angle_gamma                 120
loop_
_atom_site_label
_atom_site_type_symbol
_atom_site_fract_x
_atom_site_fract_y
_atom_site_fract_z
_atom_site_U_iso_or_equiv
_atom_site_adp_type
_atom_site_occupancy
N1      N    0.4140065434    0.5737823627   -0.0190718494    0    Uiso    1
C2      C    0.2533058755    0.4982519304   -0.0229541828    1    Uiso    1
C3      C    0.1691427605    0.3301441962   -0.0230460811    2    Uiso    1
C4      C    0.5010645841    0.7368003991   -0.0218075984    3    Uiso    1
C5      C    0.4245841181    0.8296068621   -0.0246707902    4    Uiso    1
C6      C    0.1742610517    0.5836187675   -0.0249282910    5    Uiso    1
C7      C    0.0047379611    0.2447032644   -0.0248746678    6    Uiso    1
N8      N    0.2541985207    0.2544860071   -0.0192603552    7    Uiso    1
C9      C    0.2587937433    0.7513701908   -0.0244383577    8    Uiso    1
C10      C    0.0090969956    -0.0013627430   -0.0244504647    9    Uiso    1
C11      C    0.9215321967    0.0769093233   -0.0243985212    10    Uiso    1
C12      C    0.1784013840    0.0914463159   -0.0217084817    11    Uiso    1
C13      C    0.5102297436    -0.0018128161   -0.0263536882    12    Uiso    1
C14      C    0.9256346239    0.3304190736   -0.0265086720    13    Uiso    1
C15      C    0.0094310615    0.4978946865   -0.0265807685    14    Uiso    1
C16      C    0.7546963023    -0.0114490068   -0.0241529066    15    Uiso    1
C17      C    0.9262672222    0.8301075705   -0.0259798550    16    Uiso    1
C18      C    0.6697231564    0.8186705286   -0.0224618094    17    Uiso    1
C19      C    0.6761360149    0.0768025126   -0.0261780363    18    Uiso    1
C20      C    0.1803435954    0.8397450591   -0.0240458221    19    Uiso    1
C21      C    0.0135347734    0.7515082812   -0.0259337996    20    Uiso    1
C22      C    0.7608555122    0.2445788779   -0.0278066217    21    Uiso    1
C23      C    0.2651821052    0.0096103203   -0.0224937365    22    Uiso    1
C24      C    0.7569056698    0.7372548200   -0.0247432603    23    Uiso    1
C25      C    0.9304976736    0.5837574299   -0.0277372320    24    Uiso    1
C26      C    0.4338149146    0.0911380737   -0.0252613680    25    Uiso    1
C27      C    0.6815056712    0.3298933676   -0.0291563425    26    Uiso    1
C28      C    0.7658526206    0.4984913321   -0.0289183959    27    Uiso    1
N29      N    0.6813041038    0.5745560537   -0.0259636188    28    Uiso    1
N30      N    0.5208239885    0.2537681888   -0.0270397280    29    Uiso    1
Fe31      Fe    0.4687955675    0.4141293150   -0.0041294084    30    Uiso    1
O32      O    0.3182327615    0.4469953797   0.1776911554    31    Uiso    1
N33      N    0.4118627415    0.3959105150   0.1841356689    32    Uiso    1
O34      O    0.4999551432    0.3982071883   0.1169770027    33    Uiso    1
H35      H    0.5730752005    0.2441171372   0.2039901112    34    Uiso    1
C36      C    0.5217154322    0.2563736585   0.2654585969    35    Uiso    1
C37      C    0.4329985008    0.3320914221   0.2646028203    36    Uiso    1
H38      H    0.6099827454    0.1383727210   0.3465941006    37    Uiso    1
C39      C    0.5415874973    0.1977153385   0.3455708309    38    Uiso    1
C40      C    0.3636126409    0.3474932593   0.3426311865    39    Uiso    1
H41      H    0.2948465879    0.4060412779   0.3392620859    40    Uiso    1
C42      C    0.4748675616    0.2140814920   0.4241636890    41    Uiso    1
C43      C    0.3858241878    0.2886669543   0.4221408699    42    Uiso    1
H44      H    0.4923149559    0.1685158861   0.4866830236    43    Uiso    1
H45      H    0.3335739883    0.3017072254   0.4832935693    44    Uiso    1
