data_benN-Nben
_audit_creation_date              2013-05-06
_audit_creation_method            'Materials Studio'
_symmetry_space_group_name_H-M    'P1'
_symmetry_Int_Tables_number       1
_symmetry_cell_setting            triclinic
loop_
_symmetry_equiv_pos_as_xyz
  x,y,z
_cell_length_a                    9.840000144139096
_cell_length_b                    9.84000014413909600000
_cell_length_c                    14.99999781972419655144
_cell_angle_alpha                 90
_cell_angle_beta                  90
_cell_angle_gamma                 120
loop_
_atom_site_label
_atom_site_type_symbol
_atom_site_fract_x
_atom_site_fract_y
_atom_site_fract_z
_atom_site_U_iso_or_equiv
_atom_site_adp_type
_atom_site_occupancy
N1      N    0.4199371134    0.6301608134   0.0022763229    0    Uiso    1
C2      C    0.2591159582    0.5534832657   0.0004988558    1    Uiso    1
C3      C    0.1749071547    0.3850664478   0.0005005868    2    Uiso    1
C4      C    0.5065920756    0.7918950680   0.0024424422    3    Uiso    1
C5      C    0.4301078649    0.8849350341   0.0014233390    4    Uiso    1
C6      C    0.1796589973    0.6385391535   0.0006866090    5    Uiso    1
C7      C    0.0104166013    0.2997981278   0.0002703260    6    Uiso    1
N8      N    0.2596102571    0.3085866021   0.0037209535    7    Uiso    1
C9      C    0.2642038502    0.8062772481   0.0016291717    8    Uiso    1
C10      C    0.0144529567    0.0534083053   0.0009076467    9    Uiso    1
C11      C    0.9271296846    0.1320059287   0.0011122812    10    Uiso    1
C12      C    0.1840121080    0.1462970824   0.0026147276    11    Uiso    1
C13      C    0.5158749421    0.0533715208   0.0015895512    12    Uiso    1
C14      C    0.9311152318    0.3853329013   0.0003123421    13    Uiso    1
C15      C    0.0148507757    0.5528119052   0.0005497594    14    Uiso    1
C16      C    0.7602714618    0.0436125271   0.0021539597    15    Uiso    1
C17      C    0.9316632492    0.8848746694   0.0008693399    16    Uiso    1
C18      C    0.6753546937    0.8737973791   0.0030939076    17    Uiso    1
C19      C    0.6818327470    0.1319564846   0.0015327474    18    Uiso    1
C20      C    0.1856747174    0.8945168326   0.0025145368    19    Uiso    1
C21      C    0.0188688790    0.8062248694   0.0012597390    20    Uiso    1
C22      C    0.7662853143    0.2996402820   0.0006161823    21    Uiso    1
C23      C    0.2705793178    0.0643091333   0.0038429171    22    Uiso    1
C24      C    0.7620242866    0.7918479908   0.0018210819    23    Uiso    1
C25      C    0.9356786301    0.6384380143   0.0005236945    24    Uiso    1
C26      C    0.4393079697    0.1462750528   0.0033412911    25    Uiso    1
C27      C    0.6869179037    0.3848397265   0.0009108584    26    Uiso    1
C28      C    0.7711407550    0.5532852289   0.0001255838    27    Uiso    1
N29      N    0.6870037887    0.6299868303   0.0008484289    28    Uiso    1
N30      N    0.5257968414    0.3084064498   0.0042326579    29    Uiso    1
Fe31      Fe    0.4737263817    0.4702492737   0.0214955423    30    Uiso    1
N32      N    0.4924565143    0.4953072160   0.1424025755    31    Uiso    1
H33      H    0.7502144473    0.9034653987   0.2224114168    32    Uiso    1
H34      H    0.6776583809    0.3920362002   0.2027266600    33    Uiso    1
N35      N    0.5605735355    0.6329237471   0.1772111840    34    Uiso    1
C36      C    0.5546169302    0.3126999836   0.2184649320    35    Uiso    1
C37      C    0.6976499926    0.8312064783   0.2814272440    36    Uiso    1
C38      C    0.4423907664    0.3520990834   0.1923623352    37    Uiso    1
H39      H    0.8235324130    1.0177890422   0.3752737305    38    Uiso    1
C40      C    0.5872541120    0.6707681666   0.2676938990    39    Uiso    1
C41      C    0.7372446462    0.8939347341   0.3665294853    40    Uiso    1
H42      H    0.5937805187    0.1399688379   0.2828886620    41    Uiso    1
C43      C    0.5068410051    0.1719668050   0.2631385030    42    Uiso    1
C44      C    0.2836002600    0.2524342931   0.2111760823    43    Uiso    1
H45      H    0.1979821101    0.2852450192   0.1900433828    44    Uiso    1
C46      C    0.5151237109    0.5760181200   0.3432708766    45    Uiso    1
C47      C    0.6653807589    0.7990043013   0.4407891418    46    Uiso    1
C48      C    0.3485706013    0.0720060730   0.2826457994    47    Uiso    1
H49      H    0.4278395890    0.4528012946   0.3362990335    48    Uiso    1
C50      C    0.2373114590    0.1127702897   0.2568292021    49    Uiso    1
C51      C    0.5541188540    0.6410877051   0.4282298842    50    Uiso    1
H52      H    0.6950754413    0.8479852172   0.5077945460    51    Uiso    1
H53      H    0.3118722406    -0.0378630794   0.3177083929    52    Uiso    1
H54      H    0.1135887557    0.0346839363   0.2720097167    53    Uiso    1
H55      H    0.4958704478    0.5665809881   0.4856959304    54    Uiso    1
