data_benNH2
_audit_creation_date              2013-05-06
_audit_creation_method            'Materials Studio'
_symmetry_space_group_name_H-M    'P1'
_symmetry_Int_Tables_number       1
_symmetry_cell_setting            triclinic
loop_
_symmetry_equiv_pos_as_xyz
  x,y,z
_cell_length_a                    9.840000144139096
_cell_length_b                    9.84000014413909600000
_cell_length_c                    14.99999781972419655144
_cell_angle_alpha                 90
_cell_angle_beta                  90
_cell_angle_gamma                 120
loop_
_atom_site_label
_atom_site_type_symbol
_atom_site_fract_x
_atom_site_fract_y
_atom_site_fract_z
_atom_site_U_iso_or_equiv
_atom_site_adp_type
_atom_site_occupancy
N1      N    0.3972372250    0.5700036273   -0.0046348668    0    Uiso    1
C2      C    0.2349186351    0.4920065353   -0.0060014982    1    Uiso    1
C3      C    0.1517086852    0.3252314711   -0.0052575757    2    Uiso    1
C4      C    0.4841817396    0.7321009311   -0.0062608621    3    Uiso    1
C5      C    0.4074229405    0.8247396111   -0.0071042506    4    Uiso    1
C6      C    0.1566395068    0.5779289869   -0.0075304552    5    Uiso    1
C7      C    -0.0125398071    0.2393636862   -0.0072175098    6    Uiso    1
N8      N    0.2363819289    0.2476087671   -0.0025677667    7    Uiso    1
C9      C    0.2413152223    0.7456616900   -0.0071763323    8    Uiso    1
C10      C    -0.0082461425    -0.0070781323   -0.0071894637    9    Uiso    1
C11      C    0.9044119512    0.0716994621   -0.0071869172    10    Uiso    1
C12      C    0.1611519763    0.0854856671   -0.0049757582    11    Uiso    1
C13      C    0.4929555724    -0.0071817991   -0.0074963678    12    Uiso    1
C14      C    0.9083796644    0.3248965485   -0.0088868504    13    Uiso    1
C15      C    -0.0079060559    0.4923186844   -0.0089681889    14    Uiso    1
C16      C    0.7378126378    -0.0161836724   -0.0072759865    15    Uiso    1
C17      C    0.9092403660    0.8248502372   -0.0089439532    16    Uiso    1
C18      C    0.6529453033    0.8140725769   -0.0068734393    17    Uiso    1
C19      C    0.6591029006    0.0716594878   -0.0078837912    18    Uiso    1
C20      C    0.1627438690    0.8336605559   -0.0070697544    19    Uiso    1
C21      C    -0.0037980028    0.7457039316   -0.0088902512    20    Uiso    1
C22      C    0.7437269860    0.2393039499   -0.0093370525    21    Uiso    1
C23      C    0.2475950227    0.0033432939   -0.0055325000    22    Uiso    1
C24      C    0.7398317554    0.7322852316   -0.0090020916    23    Uiso    1
C25      C    0.9131575762    0.5779296574   -0.0102363159    24    Uiso    1
C26      C    0.4162016589    0.0854311438   -0.0063239297    25    Uiso    1
C27      C    0.6653201171    0.3251696924   -0.0096387251    26    Uiso    1
C28      C    0.7489484709    0.4919705581   -0.0111020477    27    Uiso    1
N29      N    0.6646860866    0.5700815836   -0.0100395814    28    Uiso    1
N30      N    0.5030648994    0.2475567742   -0.0061365551    29    Uiso    1
Fe31      Fe    0.4506349333    0.4087324787   0.0025260437    30    Uiso    1
N32      N    0.5006629474    0.4768528691   0.1605362025    31    Uiso    1
H33      H    0.4371960992    0.5314937307   0.1708406503    32    Uiso    1
H34      H    0.6138375990    0.5586156628   0.1458155091    33    Uiso    1
H35      H    0.6773379289    0.3450975193   0.1818136621    34    Uiso    1
C36      C    0.5894282094    0.3145075330   0.2340345113    35    Uiso    1
C37      C    0.4881373282    0.3758683076   0.2309525266    36    Uiso    1
H38      H    0.6560931661    0.1672685580   0.3048260676    37    Uiso    1
C39      C    0.5766249739    0.2143404717   0.3030746145    38    Uiso    1
C40      C    0.3726287530    0.3330174392   0.2964534002    39    Uiso    1
H41      H    0.2936148031    0.3807285449   0.2939976935    40    Uiso    1
C42      C    0.4629825474    0.1733315840   0.3692874130    41    Uiso    1
C43      C    0.3606733754    0.2325781479   0.3652158251    42    Uiso    1
H44      H    0.4542525305    0.0957251230   0.4235189681    43    Uiso    1
H45      H    0.2712921163    0.2013612913   0.4163975508    44    Uiso    1
