data_benNHOH
_audit_creation_date              2013-05-06
_audit_creation_method            'Materials Studio'
_symmetry_space_group_name_H-M    'P1'
_symmetry_Int_Tables_number       1
_symmetry_cell_setting            triclinic
loop_
_symmetry_equiv_pos_as_xyz
  x,y,z
_cell_length_a                    9.840000144139096
_cell_length_b                    9.84000014413909600000
_cell_length_c                    14.99999781972419655144
_cell_angle_alpha                 90
_cell_angle_beta                  90
_cell_angle_gamma                 120
loop_
_atom_site_label
_atom_site_type_symbol
_atom_site_fract_x
_atom_site_fract_y
_atom_site_fract_z
_atom_site_U_iso_or_equiv
_atom_site_adp_type
_atom_site_occupancy
N1      N    0.3910422901    0.5721532295   -0.0058297285    0    Uiso    1
C2      C    0.2289763692    0.4942886948   -0.0069289698    1    Uiso    1
C3      C    0.1455043198    0.3274820796   -0.0056520997    2    Uiso    1
C4      C    0.4778761703    0.7339654603   -0.0059547651    3    Uiso    1
C5      C    0.4012515374    0.8267602129   -0.0063302730    4    Uiso    1
C6      C    0.1506178834    0.5800728286   -0.0074979209    5    Uiso    1
C7      C    -0.0186561001    0.2415760984   -0.0067887438    6    Uiso    1
N8      N    0.2299997212    0.2497335064   -0.0021983156    7    Uiso    1
C9      C    0.2352137561    0.7477762866   -0.0064619783    8    Uiso    1
C10      C    -0.0144447768    -0.0049396089   -0.0054337524    9    Uiso    1
C11      C    0.8982378346    0.0738606875   -0.0058854345    10    Uiso    1
C12      C    0.1549477600    0.0876547066   -0.0035578087    11    Uiso    1
C13      C    0.4867748513    -0.0051036095   -0.0055994457    12    Uiso    1
C14      C    0.9022014177    0.3270478052   -0.0077386481    13    Uiso    1
C15      C    -0.0139657327    0.4944729008   -0.0078401109    14    Uiso    1
C16      C    0.7316210337    -0.0140471595   -0.0057280276    15    Uiso    1
C17      C    0.9030751969    0.8269859092   -0.0060602699    16    Uiso    1
C18      C    0.6467235455    0.8161807636   -0.0050543019    17    Uiso    1
C19      C    0.6529110381    0.0738139367   -0.0060915846    18    Uiso    1
C20      C    0.1566396150    0.8357999958   -0.0053442918    19    Uiso    1
C21      C    -0.0099037129    0.7478461454   -0.0063476496    20    Uiso    1
C22      C    0.7375697397    0.2414695920   -0.0070573914    21    Uiso    1
C23      C    0.2414778188    0.0055085527   -0.0034492433    22    Uiso    1
C24      C    0.7336788988    0.7345447585   -0.0054004799    23    Uiso    1
C25      C    0.9070799057    0.5801001582   -0.0075261045    24    Uiso    1
C26      C    0.4100220119    0.0875343888   -0.0036268339    25    Uiso    1
C27      C    0.6592217284    0.3273759325   -0.0060179019    26    Uiso    1
C28      C    0.7428719918    0.4940893561   -0.0068102014    27    Uiso    1
N29      N    0.6584215423    0.5721772737   -0.0044936936    28    Uiso    1
N30      N    0.4968943657    0.2497461772   -0.0023824855    29    Uiso    1
Fe31      Fe    0.4437862027    0.4108637904   0.0045389213    30    Uiso    1
N32      N    0.4794498471    0.4738170099   0.1669735318    31    Uiso    1
O33      O    0.3845467697    0.5386743071   0.1936383581    32    Uiso    1
H34      H    0.5895408348    0.5645483157   0.1523076112    33    Uiso    1
H35      H    0.7092012147    0.4101283171   0.1813798560    34    Uiso    1
H36      H    0.4212864205    0.5836057921   0.2535020892    35    Uiso    1
C37      C    0.6132506776    0.3444191480   0.2281030284    36    Uiso    1
C38      C    0.4835814044    0.3671064636   0.2290120000    37    Uiso    1
H39      H    0.7196068677    0.2205887422   0.2854753239    38    Uiso    1
C40      C    0.6181660555    0.2372916319   0.2864319664    39    Uiso    1
C41      C    0.3594651164    0.2819469674   0.2880011835    40    Uiso    1
H42      H    0.2584312915    0.2990485503   0.2874973850    41    Uiso    1
C43      C    0.4957529989    0.1533645888   0.3465235080    42    Uiso    1
C44      C    0.3670045854    0.1762700094   0.3467918957    43    Uiso    1
H45      H    0.5013156001    0.0714886066   0.3932061628    44    Uiso    1
H46      H    0.2708920919    0.1116306997   0.3934856347    45    Uiso    1
