data_benNO
_audit_creation_date              2013-05-06
_audit_creation_method            'Materials Studio'
_symmetry_space_group_name_H-M    'P1'
_symmetry_Int_Tables_number       1
_symmetry_cell_setting            triclinic
loop_
_symmetry_equiv_pos_as_xyz
  x,y,z
_cell_length_a                    9.840000144139096
_cell_length_b                    9.84000014413909600000
_cell_length_c                    14.99999781972419655144
_cell_angle_alpha                 90
_cell_angle_beta                  90
_cell_angle_gamma                 120
loop_
_atom_site_label
_atom_site_type_symbol
_atom_site_fract_x
_atom_site_fract_y
_atom_site_fract_z
_atom_site_U_iso_or_equiv
_atom_site_adp_type
_atom_site_occupancy
N1      N    0.4202220539    0.6107718681   0.0114106953    0    Uiso    1
C2      C    0.2592502011    0.5333485273   0.0101104831    1    Uiso    1
C3      C    0.1749756704    0.3653518200   0.0108260018    2    Uiso    1
C4      C    0.5073259470    0.7728210447   0.0123295296    3    Uiso    1
C5      C    0.4305487776    0.8655882605   0.0107153632    4    Uiso    1
C6      C    0.1799882142    0.6187404959   0.0099239721    5    Uiso    1
C7      C    0.0103966450    0.2800400341   0.0104822993    6    Uiso    1
N8      N    0.2587127774    0.2878720001   0.0134539624    7    Uiso    1
C9      C    0.2646126611    0.7864301040   0.0107611616    8    Uiso    1
C10      C    0.0143067490    0.0334804633   0.0116703626    9    Uiso    1
C11      C    0.9272706477    0.1125259117   0.0116944819    10    Uiso    1
C12      C    0.1836999538    0.1261989213   0.0126302119    11    Uiso    1
C13      C    0.5159130129    0.0338602197   0.0107480676    12    Uiso    1
C14      C    0.9313551265    0.3658209599   0.0100509838    13    Uiso    1
C15      C    0.0152349558    0.5331474498   0.0099362909    14    Uiso    1
C16      C    0.7604458056    0.0244889913   0.0125835270    15    Uiso    1
C17      C    0.9317902030    0.8651275839   0.0125979490    16    Uiso    1
C18      C    0.6757365029    0.8546924773   0.0145552370    17    Uiso    1
C19      C    0.6818741780    0.1126519205   0.0110064602    18    Uiso    1
C20      C    0.1859538884    0.8745702538   0.0119119139    19    Uiso    1
C21      C    0.0192419875    0.7864912739   0.0120616406    20    Uiso    1
C22      C    0.7665639420    0.2803482466   0.0102044462    21    Uiso    1
C23      C    0.2708904329    0.0443160524   0.0129175003    22    Uiso    1
C24      C    0.7624514678    0.7725834836   0.0156585328    23    Uiso    1
C25      C    0.9360534580    0.6188694476   0.0110418553    24    Uiso    1
C26      C    0.4390291909    0.1264494545   0.0118545923    25    Uiso    1
C27      C    0.6876468117    0.3660506440   0.0109169436    26    Uiso    1
C28      C    0.7716649289    0.5334597196   0.0129220060    27    Uiso    1
N29      N    0.6868338668    0.6102455821   0.0192807633    28    Uiso    1
N30      N    0.5261010543    0.2890693108   0.0123603039    29    Uiso    1
Fe31      Fe    0.4725784293    0.4494728498   0.0325592968    30    Uiso    1
O32      O    0.3147984367    0.4557483615   0.1896341958    31    Uiso    1
N33      N    0.4220240526    0.4292774051   0.1631632421    32    Uiso    1
H34      H    0.6811283487    0.4269353146   0.1979726694    33    Uiso    1
C35      C    0.5774150281    0.3190118683   0.2190946024    34    Uiso    1
C36      C    0.4290896049    0.3028476894   0.2062388095    35    Uiso    1
H37      H    0.7054416439    0.2109278266   0.2691020980    36    Uiso    1
C38      C    0.5899474725    0.1980395576   0.2586316586    37    Uiso    1
C39      C    0.2936629946    0.1674726677   0.2346577249    38    Uiso    1
H40      H    0.1798867247    0.1583970464   0.2242632638    39    Uiso    1
C41      C    0.4548930580    0.0605841178   0.2846755261    40    Uiso    1
C42      C    0.3074419931    0.0463202713   0.2731525848    41    Uiso    1
H43      H    0.4645373711    -0.0356136296   0.3138815325    42    Uiso    1
H44      H    0.2023337301    -0.0609838688   0.2936652568    43    Uiso    1
