data_benzylamine
_audit_creation_date              2013-05-06
_audit_creation_method            'Materials Studio'
_symmetry_space_group_name_H-M    'P1'
_symmetry_Int_Tables_number       1
_symmetry_cell_setting            triclinic
loop_
_symmetry_equiv_pos_as_xyz
  x,y,z
_cell_length_a                    9.840000144139096
_cell_length_b                    9.84000014413909600000
_cell_length_c                    14.99999781972419655144
_cell_angle_alpha                 90
_cell_angle_beta                  90
_cell_angle_gamma                 120
loop_
_atom_site_label
_atom_site_type_symbol
_atom_site_fract_x
_atom_site_fract_y
_atom_site_fract_z
_atom_site_U_iso_or_equiv
_atom_site_adp_type
_atom_site_occupancy
C1      C    0.0046653860    0.4949760958   -0.0082396629    0    Uiso    1
C2      C    0.9208368793    0.3273472570   -0.0083996684    1    Uiso    1
C3      C    0.9255628434    0.5805404812   -0.0067165653    2    Uiso    1
C4      C    0.1692449887    0.5806967208   -0.0101528660    3    Uiso    1
C5      C    0.7561517707    0.2418568417   -0.0070465789    4    Uiso    1
C6      C    -0.0002464630    0.2416564233   -0.0099249773    5    Uiso    1
C7      C    0.7613199439    0.4951103681   -0.0051100378    6    Uiso    1
C8      C    0.6774415134    0.3273836706   -0.0051268719    7    Uiso    1
C9      C    0.2482890370    0.4952557910   -0.0118942868    8    Uiso    1
C10      C    0.1642622114    0.3272079413   -0.0111192288    9    Uiso    1
C11      C    0.0087798518    0.7483120647   -0.0073363148    10    Uiso    1
C12      C    0.2538860920    0.7484033975   -0.0095463796    11    Uiso    1
C13      C    0.6716370733    0.0741117915   -0.0078714540    12    Uiso    1
C14      C    0.9166970768    0.0740113446   -0.0092511171    13    Uiso    1
C15      C    0.9212989532    0.8268872488   -0.0080874431    14    Uiso    1
C16      C    0.5055889887    -0.0044990216   -0.0084930309    15    Uiso    1
C17      C    0.4199927865    0.8272162985   -0.0103168118    16    Uiso    1
C18      C    0.0039720261    -0.0048363226   -0.0094695447    17    Uiso    1
C19      C    0.7501108323    -0.0140044815   -0.0081794953    18    Uiso    1
C20      C    0.1753589425    0.8364473167   -0.0076657798    19    Uiso    1
C21      C    0.7520560871    0.7341913559   -0.0067881293    20    Uiso    1
C22      C    0.4290096545    0.0881587689   -0.0063699834    21    Uiso    1
C23      C    0.4966201159    0.7345581408   -0.0104853212    22    Uiso    1
C24      C    0.1732096535    0.0877827667   -0.0087462537    23    Uiso    1
N25      N    0.6762687733    0.5717016375   -0.0044419722    24    Uiso    1
N26      N    0.5156734278    0.2508093727   -0.0037475542    25    Uiso    1
C27      C    0.6653086761    0.8162739910   -0.0079363546    26    Uiso    1
C28      C    0.2602903039    0.0061836200   -0.0068298563    27    Uiso    1
N29      N    0.4098930809    0.5721694022   -0.0123879802    28    Uiso    1
N30      N    0.2490822025    0.2503000205   -0.0098247215    29    Uiso    1
Fe31      Fe    0.4616261312    0.4106722306   0.0036591732    30    Uiso    1
H32      H    0.3264840942    0.4147661035   0.1409459922    31    Uiso    1
H33      H    0.5123761807    0.5466268319   0.1526867393    32    Uiso    1
N34      N    0.4378428314    0.4312563347   0.1368250008    33    Uiso    1
H35      H    0.3798684974    0.2076004307   0.1800954874    34    Uiso    1
C36      C    0.4568169307    0.3295570825   0.2015846942    35    Uiso    1
H37      H    0.5776644093    0.3521686033   0.1954492939    36    Uiso    1
H38      H    0.2852660613    0.4626409896   0.2685315064    37    Uiso    1
C39      C    0.4221490636    0.3507000110   0.2974951927    38    Uiso    1
C40      C    0.3323935999    0.4196458296   0.3201456169    39    Uiso    1
H41      H    0.5498317846    0.2430247910   0.3500175335    40    Uiso    1
C42      C    0.4794994762    0.2971397746   0.3663197046    41    Uiso    1
C43      C    0.3016036297    0.4358677615   0.4091371747    42    Uiso    1
H44      H    0.2322064578    0.4909342782   0.4253410403    43    Uiso    1
C45      C    0.4485869434    0.3125402836   0.4551655308    44    Uiso    1
C46      C    0.3597349097    0.3824841925   0.4769581099    45    Uiso    1
H47      H    0.4948306642    0.2705576675   0.5077478356    46    Uiso    1
H48      H    0.3364056253    0.3953764999   0.5465106151    47    Uiso    1
