data_C2H4
_audit_creation_date              2013-05-06
_audit_creation_method            'Materials Studio'
_symmetry_space_group_name_H-M    'P1'
_symmetry_Int_Tables_number       1
_symmetry_cell_setting            triclinic
loop_
_symmetry_equiv_pos_as_xyz
  x,y,z
_cell_length_a                    8.521700022821822
_cell_length_b                    9.83999849465233504157
_cell_length_c                    14.99999864057124494626
_cell_angle_alpha                 90
_cell_angle_beta                  90
_cell_angle_gamma                 90
loop_
_atom_site_label
_atom_site_type_symbol
_atom_site_fract_x
_atom_site_fract_y
_atom_site_fract_z
_atom_site_U_iso_or_equiv
_atom_site_adp_type
_atom_site_occupancy
C1      C    0.9986100000    0.0002100000   0.1133200000    0    Uiso    1
C2      C    0.2452100000    0.1217800000   0.1133100000    1    Uiso    1
C3      C    0.0773000000    0.1251900000   0.1133100000    2    Uiso    1
C4      C    0.3304600000    0.9961500000   0.1133200000    3    Uiso    1
C5      C    0.4991500000    0.0002700000   0.1133200000    4    Uiso    1
C6      C    0.7430400000    0.1322800000   0.1133100000    5    Uiso    1
C7      C    0.5756700000    0.1291800000   0.1133500000    6    Uiso    1
C8      C    0.8288600000    0.0045200000   0.1133100000    7    Uiso    1
C9      C    0.9945800000    0.2518000000   0.1133200000    8    Uiso    1
C10      C    0.2438700000    0.3703200000   0.1133100000    9    Uiso    1
C11      C    0.0796300000    0.3732800000   0.1133200000    10    Uiso    1
C12      C    0.3259100000    0.2445100000   0.1133600000    11    Uiso    1
C13      C    0.8265000000    0.2596200000   0.1133300000    12    Uiso    1
C14      C    0.0037800000    0.5011300000   0.1133200000    13    Uiso    1
C15      C    0.2568000000    0.6148900000   0.1133100000    14    Uiso    1
C16      C    0.0887700000    0.6226600000   0.1133200000    15    Uiso    1
C17      C    0.7575600000    0.6299800000   0.1133100000    16    Uiso    1
C18      C    0.8395700000    0.5041700000   0.1133300000    17    Uiso    1
C19      C    0.0061400000    0.7492800000   0.1133200000    18    Uiso    1
C20      C    0.2545800000    0.8699200000   0.1133200000    19    Uiso    1
C21      C    0.0848400000    0.8742500000   0.1133200000    20    Uiso    1
C22      C    0.3403700000    0.7421900000   0.1133100000    21    Uiso    1
C23      C    0.5077900000    0.7453600000   0.1133100000    22    Uiso    1
C24      C    0.7530300000    0.8783000000   0.1133100000    23    Uiso    1
C25      C    0.5843000000    0.8742700000   0.1133100000    24    Uiso    1
C26      C    0.8382500000    0.7526800000   0.1133100000    25    Uiso    1
N27      N    0.4882800000    0.2494100000   0.1135100000    26    Uiso    1
N28      N    0.7548100000    0.3853000000   0.1133500000    27    Uiso    1
N29      N    0.3285200000    0.4892400000   0.1133100000    28    Uiso    1
N30      N    0.5952000000    0.6251400000   0.1133100000    29    Uiso    1
Fe31      Fe    0.5416700000    0.4372800000   0.1133800000    30    Uiso    1
C32      C    0.5415902509    0.4382758577   0.3426288654    31    Uiso    1
C33      C    0.5418018353    0.4378410225   0.4312818208    32    Uiso    1
H34      H    0.4787775151    0.3616487795   0.3040673378    33    Uiso    1
H35      H    0.6045059552    0.5154299633   0.3044642460    34    Uiso    1
H36      H    0.4788282545    0.3607888643   0.4693490794    35    Uiso    1
H37      H    0.6048435020    0.5144716685   0.4696195506    36    Uiso    1
