data_C6H5SCH3
_audit_creation_date              2013-05-06
_audit_creation_method            'Materials Studio'
_symmetry_space_group_name_H-M    'P1'
_symmetry_Int_Tables_number       1
_symmetry_cell_setting            triclinic
loop_
_symmetry_equiv_pos_as_xyz
  x,y,z
_cell_length_a                    9.840000144139096
_cell_length_b                    9.84000014413909600000
_cell_length_c                    11.83250177332582154904
_cell_angle_alpha                 90
_cell_angle_beta                  90
_cell_angle_gamma                 120
loop_
_atom_site_label
_atom_site_type_symbol
_atom_site_fract_x
_atom_site_fract_y
_atom_site_fract_z
_atom_site_U_iso_or_equiv
_atom_site_adp_type
_atom_site_occupancy
C1      C    0.0254240845    0.5051501395   0.0117932793    0    Uiso    1
C2      C    0.9416697552    0.3375731192   0.0121753215    1    Uiso    1
C3      C    0.9462843626    0.5907824957   0.0144119657    2    Uiso    1
C4      C    0.1901342631    0.5907909675   0.0113281554    3    Uiso    1
C5      C    0.7768960695    0.2519315740   0.0137335530    4    Uiso    1
C6      C    0.0206652140    0.2518274291   0.0126455052    5    Uiso    1
C7      C    0.7818895542    0.5055035323   0.0165925001    6    Uiso    1
C8      C    0.6977627613    0.3372137026   0.0151411020    7    Uiso    1
C9      C    0.2693234271    0.5054891121   0.0123851610    8    Uiso    1
C10      C    0.1851086659    0.3370319593   0.0130711471    9    Uiso    1
C11      C    0.0294475387    0.7585435083   0.0161180216    10    Uiso    1
C12      C    0.2745777345    0.7584550403   0.0138980710    11    Uiso    1
C13      C    0.6922238275    0.0841173561   0.0152871673    12    Uiso    1
C14      C    0.9373369415    0.0841285882   0.0154600890    13    Uiso    1
C15      C    0.9418551992    0.8369789797   0.0169882964    14    Uiso    1
C16      C    0.5262792605    0.0056054604   0.0149175689    15    Uiso    1
C17      C    0.4405650862    0.8370119180   0.0146683081    16    Uiso    1
C18      C    0.0247186155    0.0055649570   0.0161818086    17    Uiso    1
C19      C    0.7706583808    -0.0041449855   0.0171669730    18    Uiso    1
C20      C    0.1961092049    0.8466869398   0.0164588297    19    Uiso    1
C21      C    0.7725993935    0.7441484847   0.0199770209    20    Uiso    1
C22      C    0.4497579848    0.0983937698   0.0168254581    21    Uiso    1
C23      C    0.5171052740    0.7442785456   0.0176164543    22    Uiso    1
C24      C    0.1940094565    0.0984182471   0.0180509435    23    Uiso    1
N25      N    0.6966030030    0.5813583335   0.0220672311    24    Uiso    1
N26      N    0.5366220951    0.2611326623   0.0186045511    25    Uiso    1
C27      C    0.6856542547    0.8259939881   0.0198826235    26    Uiso    1
N28      N    0.4300953255    0.5813409729   0.0185823684    27    Uiso    1
C29      C    0.2811048931    0.0166036318   0.0188499351    28    Uiso    1
N30      N    0.2700757908    0.2610961447   0.0189326359    29    Uiso    1
Fe31      Fe    0.4831180432    0.4209147458   0.0408781654    30    Uiso    1
H32      H    0.5966116839    0.2592186048   0.2557630693    31    Uiso    1
S33      S    0.4888934600    0.4234260682   0.2232559299    32    Uiso    1
H34      H    0.1795056959    0.1445636869   0.2912412255    33    Uiso    1
C35      C    0.4832387779    0.2474702762   0.2786214141    34    Uiso    1
H36      H    0.3890341716    0.1401227027   0.2401617385    35    Uiso    1
H37      H    0.4709418868    0.2454723298   0.3708120007    36    Uiso    1
C38      C    0.1743685251    0.2521342659   0.2981514794    37    Uiso    1
C39      C    0.3056788813    0.3977003641   0.2738053943    38    Uiso    1
H40      H    -0.0680294975    0.1299912778   0.3481565876    39    Uiso    1
C41      C    0.0340730071    0.2439141319   0.3296855800    40    Uiso    1
C42      C    0.2952198259    0.5340861625   0.2808085103    41    Uiso    1
H43      H    0.3973799968    0.6472673701   0.2606066236    42    Uiso    1
C44      C    0.0231889926    0.3796063591   0.3360582955    43    Uiso    1
C45      C    0.1541885361    0.5245848138   0.3114648980    44    Uiso    1
H46      H    -0.0869893680    0.3725703955   0.3601779285    45    Uiso    1
H47      H    0.1465799633    0.6312398707   0.3154691135    46    Uiso    1
