data_CH2O
_audit_creation_date              2013-05-06
_audit_creation_method            'Materials Studio'
_symmetry_space_group_name_H-M    'P1'
_symmetry_Int_Tables_number       1
_symmetry_cell_setting            triclinic
loop_
_symmetry_equiv_pos_as_xyz
  x,y,z
_cell_length_a                    9.840000144139096
_cell_length_b                    9.84000014413909600000
_cell_length_c                    11.83250177332582154904
_cell_angle_alpha                 90
_cell_angle_beta                  90
_cell_angle_gamma                 120
loop_
_atom_site_label
_atom_site_type_symbol
_atom_site_fract_x
_atom_site_fract_y
_atom_site_fract_z
_atom_site_U_iso_or_equiv
_atom_site_adp_type
_atom_site_occupancy
C1      C    0.0105753121    -0.0011805097   -0.0140288686    0    Uiso    1
C2      C    0.1794770817    0.0910708914   -0.0120604415    1    Uiso    1
C3      C    0.2666651242    0.0099481591   -0.0114209255    2    Uiso    1
C4      C    0.4350636664    0.0910780937   -0.0116887131    3    Uiso    1
C5      C    0.5115178085    -0.0013230378   -0.0141504560    4    Uiso    1
C6      C    0.6769460185    0.0764473624   -0.0147944891    5    Uiso    1
C7      C    0.7557823704    -0.0116779355   -0.0138445371    6    Uiso    1
C8      C    0.9227284968    0.0764491663   -0.0148047579    7    Uiso    1
C9      C    0.0056490977    0.2446570249   -0.0163404941    8    Uiso    1
C10      C    0.1700287852    0.3293036872   -0.0148825483    9    Uiso    1
N11      N    0.2556627298    0.2548034732   -0.0111078443    10    Uiso    1
N12      N    0.5224087381    0.2544790270   -0.0096036283    11    Uiso    1
C13      C    0.6823444828    0.3292234462   -0.0136014335    12    Uiso    1
C14      C    0.7620012710    0.2447002867   -0.0159926060    13    Uiso    1
C15      C    0.9267964640    0.3304722046   -0.0171437140    14    Uiso    1
C16      C    0.0103141938    0.4975293470   -0.0170172234    15    Uiso    1
C17      C    0.1749823801    0.5833650789   -0.0163672645    16    Uiso    1
C18      C    0.2547297946    0.4987852762   -0.0150688308    17    Uiso    1
N19      N    0.4148770555    0.5733507325   -0.0113491971    18    Uiso    1
N20      N    0.6820798104    0.5736448375   -0.0103568999    19    Uiso    1
C21      C    0.7671346770    0.4987984868   -0.0136776786    20    Uiso    1
C22      C    0.9313314007    0.5833202501   -0.0157553047    21    Uiso    1
C23      C    0.0145203674    0.7515754531   -0.0144943771    22    Uiso    1
C24      C    0.1814749379    0.8396944918   -0.0137095075    23    Uiso    1
C25      C    0.2602941823    0.7515989348   -0.0148972317    24    Uiso    1
C26      C    0.4257706283    0.8292726177   -0.0143796572    25    Uiso    1
C27      C    0.5024036222    0.7370024219   -0.0123286921    26    Uiso    1
C28      C    0.6707288983    0.8180943947   -0.0115621379    27    Uiso    1
C29      C    0.7580460558    0.7369895253   -0.0117556421    28    Uiso    1
C30      C    0.9269066795    0.8294015826   -0.0138003052    29    Uiso    1
Fe31      Fe    0.4681999461    0.4141271895   0.0091813017    30    Uiso    1
O32      O    0.4713676568    0.4184743853   0.1640374382    31    Uiso    1
C33      C    0.3768421490    0.4285173246   0.2305970702    32    Uiso    1
H34      H    0.4004811419    0.4325608899   0.3215077286    33    Uiso    1
H35      H    0.2743926377    0.4341688802   0.1997518682    34    Uiso    1
