data_CH3
_audit_creation_date              2013-05-06
_audit_creation_method            'Materials Studio'
_symmetry_space_group_name_H-M    'P1'
_symmetry_Int_Tables_number       1
_symmetry_cell_setting            triclinic
loop_
_symmetry_equiv_pos_as_xyz
  x,y,z
_cell_length_a                    9.840000144139096
_cell_length_b                    9.84000014413909600000
_cell_length_c                    11.83250177332582154904
_cell_angle_alpha                 90
_cell_angle_beta                  90
_cell_angle_gamma                 120
loop_
_atom_site_label
_atom_site_type_symbol
_atom_site_fract_x
_atom_site_fract_y
_atom_site_fract_z
_atom_site_U_iso_or_equiv
_atom_site_adp_type
_atom_site_occupancy
C1      C    0.0024296252    0.0021974503   -0.0069889169    0    Uiso    1
C2      C    0.1714836955    0.0944952870   -0.0051101534    1    Uiso    1
C3      C    0.2585206813    0.0133395438   -0.0052465393    2    Uiso    1
C4      C    0.4267283421    0.0945231389   -0.0064539865    3    Uiso    1
C5      C    0.5034473423    0.0021705443   -0.0078569486    4    Uiso    1
C6      C    0.6689453182    0.0800211151   -0.0087520531    5    Uiso    1
C7      C    0.7478999916    -0.0078686283   -0.0072253408    6    Uiso    1
C8      C    0.9147571758    0.0800348870   -0.0076383765    7    Uiso    1
C9      C    -0.0020686758    0.2483309779   -0.0086770197    8    Uiso    1
C10      C    0.1619624932    0.3331776005   -0.0066863371    9    Uiso    1
N11      N    0.2476738513    0.2582267677   -0.0037487316    10    Uiso    1
N12      N    0.5143971127    0.2582270740   -0.0067125642    11    Uiso    1
C13      C    0.6750107430    0.3331876215   -0.0100105017    12    Uiso    1
C14      C    0.7541667992    0.2483237596   -0.0105910112    13    Uiso    1
C15      C    0.9189340617    0.3340766434   -0.0105723597    14    Uiso    1
C16      C    0.0023063837    0.5007870866   -0.0105854500    15    Uiso    1
C17      C    0.1670544276    0.5865510678   -0.0086816397    16    Uiso    1
C18      C    0.2463339902    0.5017873431   -0.0067649036    17    Uiso    1
N19      N    0.4070450576    0.5767418262   -0.0037607513    18    Uiso    1
N20      N    0.6735755383    0.5767843664   -0.0066291159    19    Uiso    1
C21      C    0.7592877768    0.5018299835   -0.0100397050    20    Uiso    1
C22      C    0.9233235261    0.5865896774   -0.0105369985    21    Uiso    1
C23      C    0.0064080579    0.7548730462   -0.0085168401    22    Uiso    1
C24      C    0.1732584653    0.8427962715   -0.0070458155    23    Uiso    1
C25      C    0.2521945868    0.7548438854   -0.0074901818    24    Uiso    1
C26      C    0.4177180800    0.8326893780   -0.0069225106    25    Uiso    1
C27      C    0.4945345608    0.7404612633   -0.0049947828    26    Uiso    1
C28      C    0.6626794804    0.8216466842   -0.0052058454    27    Uiso    1
C29      C    0.7496808123    0.7404610686   -0.0062379090    28    Uiso    1
C30      C    0.9187177624    0.8327276844   -0.0076626713    29    Uiso    1
Fe31      Fe    0.4608973385    0.4173461939   0.0105933758    30    Uiso    1
C32      C    0.4635056731    0.4131766154   0.1786658642    31    Uiso    1
H33      H    0.4185681695    0.2904884984   0.2028845824    32    Uiso    1
H34      H    0.5850194254    0.4865978026   0.2072131523    33    Uiso    1
H35      H    0.3878023299    0.4562664744   0.2114489860    34    Uiso    1
