data_CH3O
_audit_creation_date              2013-05-06
_audit_creation_method            'Materials Studio'
_symmetry_space_group_name_H-M    'P1'
_symmetry_Int_Tables_number       1
_symmetry_cell_setting            triclinic
loop_
_symmetry_equiv_pos_as_xyz
  x,y,z
_cell_length_a                    9.840000144139096
_cell_length_b                    9.84000014413909600000
_cell_length_c                    11.83250177332582154904
_cell_angle_alpha                 90
_cell_angle_beta                  90
_cell_angle_gamma                 120
loop_
_atom_site_label
_atom_site_type_symbol
_atom_site_fract_x
_atom_site_fract_y
_atom_site_fract_z
_atom_site_U_iso_or_equiv
_atom_site_adp_type
_atom_site_occupancy
C1      C    0.0024716701    0.0021070805   -0.0242550603    0    Uiso    1
C2      C    0.1714992273    0.0940893020   -0.0212077222    1    Uiso    1
C3      C    0.2583215351    0.0125124735   -0.0213016834    2    Uiso    1
C4      C    0.4267450949    0.0940320365   -0.0222137615    3    Uiso    1
C5      C    0.5037537439    0.0020319303   -0.0247648135    4    Uiso    1
C6      C    0.6693055836    0.0805192608   -0.0263678810    5    Uiso    1
C7      C    0.7483602627    -0.0074239295   -0.0248197991    6    Uiso    1
C8      C    0.9153615742    0.0805597207   -0.0258225248    7    Uiso    1
C9      C    -0.0014998015    0.2487808280   -0.0282081088    8    Uiso    1
C10      C    0.1630942922    0.3328726399   -0.0250967650    9    Uiso    1
N11      N    0.2461250721    0.2559676045   -0.0187200471    10    Uiso    1
N12      N    0.5139633304    0.2558505935   -0.0209216041    11    Uiso    1
C13      C    0.6738593930    0.3328199972   -0.0272522902    12    Uiso    1
C14      C    0.7543609581    0.2487365472   -0.0292841893    13    Uiso    1
C15      C    0.9191598348    0.3341975907   -0.0304387223    14    Uiso    1
C16      C    0.0025267083    0.5009713859   -0.0303262611    15    Uiso    1
C17      C    0.1673120728    0.5864081103   -0.0282421510    16    Uiso    1
C18      C    0.2478069706    0.5023354212   -0.0254550622    17    Uiso    1
N19      N    0.4076895656    0.5793746290   -0.0201726517    18    Uiso    1
N20      N    0.6759095646    0.5794793448   -0.0224749203    19    Uiso    1
C21      C    0.7586446022    0.5023736687   -0.0276543405    20    Uiso    1
C22      C    0.9232521636    0.5864498665   -0.0293439195    21    Uiso    1
C23      C    0.0063608407    0.7546383702   -0.0263132784    22    Uiso    1
C24      C    0.1733477910    0.8425429932   -0.0244756065    23    Uiso    1
C25      C    0.2523758197    0.7546020088   -0.0257202004    24    Uiso    1
C26      C    0.4179761525    0.8331037850   -0.0243976581    25    Uiso    1
C27      C    0.4949624385    0.7410966618   -0.0220345221    26    Uiso    1
C28      C    0.6633834717    0.8226344418   -0.0220373070    27    Uiso    1
C29      C    0.7503281174    0.7411411022   -0.0231064040    28    Uiso    1
C30      C    0.9193253705    0.8331817020   -0.0249693914    29    Uiso    1
Fe31      Fe    0.4616516355    0.4180834805   0.0127344697    30    Uiso    1
O32      O    0.4716776067    0.4279144847   0.1669099887    31    Uiso    1
C33      C    0.4615406553    0.4101341574   0.2835476649    32    Uiso    1
H34      H    0.4144320899    0.2862684624   0.3088038487    33    Uiso    1
H35      H    0.5784188612    0.4802972351   0.3232087964    34    Uiso    1
H36      H    0.3839014040    0.4504016281   0.3196538780    35    Uiso    1
