data_CHO
_audit_creation_date              2013-05-06
_audit_creation_method            'Materials Studio'
_symmetry_space_group_name_H-M    'P1'
_symmetry_Int_Tables_number       1
_symmetry_cell_setting            triclinic
loop_
_symmetry_equiv_pos_as_xyz
  x,y,z
_cell_length_a                    9.840000144139096
_cell_length_b                    9.84000014413909600000
_cell_length_c                    11.83250177332582154904
_cell_angle_alpha                 90
_cell_angle_beta                  90
_cell_angle_gamma                 120
loop_
_atom_site_label
_atom_site_type_symbol
_atom_site_fract_x
_atom_site_fract_y
_atom_site_fract_z
_atom_site_U_iso_or_equiv
_atom_site_adp_type
_atom_site_occupancy
C1      C    -0.0004282569    0.0003518297   -0.0048599429    0    Uiso    1
C2      C    0.1687191279    0.0927425030   -0.0027438235    1    Uiso    1
C3      C    0.2556796806    0.0114695271   -0.0023816964    2    Uiso    1
C4      C    0.4239054523    0.0927196884   -0.0032951714    3    Uiso    1
C5      C    0.5005985516    0.0002712768   -0.0053580398    4    Uiso    1
C6      C    0.6660343029    0.0781046136   -0.0066114197    5    Uiso    1
C7      C    0.7450134358    -0.0098375673   -0.0051698869    6    Uiso    1
C8      C    0.9119441872    0.0781544253   -0.0062816872    7    Uiso    1
C9      C    -0.0048896459    0.2464862673   -0.0086773211    8    Uiso    1
C10      C    0.1590899215    0.3311119963   -0.0068428120    9    Uiso    1
N11      N    0.2442618041    0.2557814395   -0.0019265546    10    Uiso    1
N12      N    0.5114689424    0.2557650827   -0.0026811601    11    Uiso    1
C13      C    0.6719816395    0.3311097245   -0.0075300897    12    Uiso    1
C14      C    0.7512838417    0.2464455700   -0.0090728477    13    Uiso    1
C15      C    0.9160812619    0.3322396449   -0.0103257099    14    Uiso    1
C16      C    -0.0006032956    0.4988429656   -0.0105113900    15    Uiso    1
C17      C    0.1641671419    0.5846362133   -0.0090407651    16    Uiso    1
C18      C    0.2434457490    0.4999650336   -0.0069622815    17    Uiso    1
N19      N    0.4039900109    0.5753772654   -0.0017336908    18    Uiso    1
N20      N    0.6714205551    0.5754210210   -0.0019791573    19    Uiso    1
C21      C    0.7565232474    0.4999983263   -0.0073968095    20    Uiso    1
C22      C    0.9204680624    0.5846992718   -0.0091707020    21    Uiso    1
C23      C    0.0035948495    0.7530930241   -0.0065294096    22    Uiso    1
C24      C    0.1705134641    0.8411409194   -0.0052151554    23    Uiso    1
C25      C    0.2493471407    0.7530345786   -0.0066570533    24    Uiso    1
C26      C    0.4147432872    0.8309132013   -0.0053275586    25    Uiso    1
C27      C    0.4914948461    0.7384796319   -0.0031721232    26    Uiso    1
C28      C    0.6598225042    0.8197718526   -0.0024490261    27    Uiso    1
C29      C    0.7469155010    0.7385159003   -0.0031944666    28    Uiso    1
C30      C    0.9160811149    0.8309972580   -0.0051143733    29    Uiso    1
Fe31      Fe    0.4574558954    0.4147778826   0.0158305286    30    Uiso    1
C32      C    0.4564578614    0.4103948558   0.1753368342    31    Uiso    1
O33      O    0.4010474354    0.2968658910   0.2365820562    32    Uiso    1
H34      H    0.5171503826    0.5331188854   0.2094027065    33    Uiso    1
