data_COCO
_audit_creation_date              2013-05-06
_audit_creation_method            'Materials Studio'
_symmetry_space_group_name_H-M    'P1'
_symmetry_Int_Tables_number       1
_symmetry_cell_setting            triclinic
loop_
_symmetry_equiv_pos_as_xyz
  x,y,z
_cell_length_a                    9.840000144139096
_cell_length_b                    9.84000014413909600000
_cell_length_c                    11.83250177332582154904
_cell_angle_alpha                 90
_cell_angle_beta                  90
_cell_angle_gamma                 120
loop_
_atom_site_label
_atom_site_type_symbol
_atom_site_fract_x
_atom_site_fract_y
_atom_site_fract_z
_atom_site_U_iso_or_equiv
_atom_site_adp_type
_atom_site_occupancy
C1      C    0.9181501954    0.3345753437   -0.0075302539    0    Uiso    1
C2      C    0.0017539420    0.5018507886   -0.0078828070    1    Uiso    1
C3      C    0.9226983062    0.5875516788   -0.0071622874    2    Uiso    1
C4      C    0.7533444782    0.2489314661   -0.0065163299    3    Uiso    1
C5      C    0.1665493083    0.5876710044   -0.0076957211    4    Uiso    1
C6      C    -0.0029463128    0.2487369021   -0.0068576550    5    Uiso    1
C7      C    0.7582765601    0.5018020583   -0.0060247853    6    Uiso    1
C8      C    0.6747953633    0.3346410217   -0.0057383471    7    Uiso    1
C9      C    0.2450893552    0.5019103371   -0.0069089522    8    Uiso    1
C10      C    0.0057372555    0.7552512718   -0.0055245997    9    Uiso    1
C11      C    0.6687637321    0.0811871108   -0.0044447065    10    Uiso    1
C12      C    0.1614188269    0.3345471184   -0.0063518444    11    Uiso    1
C13      C    0.2512737576    0.7554173163   -0.0059307503    12    Uiso    1
C14      C    0.9139828654    0.0810499298   -0.0046503451    13    Uiso    1
C15      C    0.9184495086    0.8339106236   -0.0043273325    14    Uiso    1
C16      C    0.7472338574    -0.0070764976   -0.0030332672    15    Uiso    1
C17      C    0.5029319541    0.0025472139   -0.0043291134    16    Uiso    1
C18      C    0.4171327256    0.8341016093   -0.0048932472    17    Uiso    1
C19      C    0.0011018660    0.0022863377   -0.0043828985    18    Uiso    1
C20      C    0.1724595513    0.8433667929   -0.0045447832    19    Uiso    1
C21      C    0.7488430086    0.7410180200   -0.0016910030    20    Uiso    1
N22      N    0.6736845240    0.5787710637   -0.0016849756    21    Uiso    1
C23      C    0.4937898354    0.7411600711   -0.0025637554    22    Uiso    1
C24      C    0.4259003804    0.0950872812   -0.0021477368    23    Uiso    1
C25      C    0.6622473289    0.8229865296   -0.0008696180    24    Uiso    1
N26      N    0.4065696604    0.5789177622   -0.0030125808    25    Uiso    1
C27      C    0.1707554279    0.0952294610   -0.0024162283    26    Uiso    1
C28      C    0.2574723199    0.0132950725   -0.0019507471    27    Uiso    1
N29      N    0.5128950228    0.2577339303   -0.0000419525    28    Uiso    1
N30      N    0.2462262318    0.2576348991   -0.0013269541    29    Uiso    1
Fe31      Fe    0.4600562266    0.4191876705   0.0185998264    30    Uiso    1
C32      C    0.4674589165    0.4374234579   0.1861804661    31    Uiso    1
O33      O    0.5305744536    0.5630264543   0.2369555498    32    Uiso    1
C34      C    0.4220263934    0.2833932399   0.2229194138    33    Uiso    1
O35      O    0.3218031734    0.1510856592   0.2364303223    34    Uiso    1
