data_COH
_audit_creation_date              2013-05-06
_audit_creation_method            'Materials Studio'
_symmetry_space_group_name_H-M    'P1'
_symmetry_Int_Tables_number       1
_symmetry_cell_setting            triclinic
loop_
_symmetry_equiv_pos_as_xyz
  x,y,z
_cell_length_a                    9.840000144139096
_cell_length_b                    9.84000014413909600000
_cell_length_c                    11.83250177332582154904
_cell_angle_alpha                 90
_cell_angle_beta                  90
_cell_angle_gamma                 120
loop_
_atom_site_label
_atom_site_type_symbol
_atom_site_fract_x
_atom_site_fract_y
_atom_site_fract_z
_atom_site_U_iso_or_equiv
_atom_site_adp_type
_atom_site_occupancy
C1      C    -0.0002185309    0.0073324368   -0.0063429980    0    Uiso    1
C2      C    0.1688719243    0.0996245489   -0.0034623553    1    Uiso    1
C3      C    0.2559890397    0.0183322792   -0.0030196477    2    Uiso    1
C4      C    0.4242100341    0.0998404779   -0.0032450017    3    Uiso    1
C5      C    0.5010562539    0.0076325472   -0.0062611319    4    Uiso    1
C6      C    0.6665544336    0.0855863044   -0.0081730824    5    Uiso    1
C7      C    0.7454344676    -0.0025211507   -0.0062985223    6    Uiso    1
C8      C    0.9124680722    0.0855279458   -0.0081478677    7    Uiso    1
C9      C    -0.0043302678    0.2537212743   -0.0119341999    8    Uiso    1
C10      C    0.1602125241    0.3381435673   -0.0085116094    9    Uiso    1
N11      N    0.2439521155    0.2620206754   -0.0009471317    10    Uiso    1
N12      N    0.5118080320    0.2627743426   -0.0011459602    11    Uiso    1
C13      C    0.6718301786    0.3383965323   -0.0087481480    12    Uiso    1
C14      C    0.7516404009    0.2537630057   -0.0119056849    13    Uiso    1
C15      C    0.9164445919    0.3393080787   -0.0144091095    14    Uiso    1
C16      C    0.0000080404    0.5062808938   -0.0141632777    15    Uiso    1
C17      C    0.1647133821    0.5918465851   -0.0115847145    16    Uiso    1
C18      C    0.2450758287    0.5076014341   -0.0082652521    17    Uiso    1
N19      N    0.4045948846    0.5836856334   -0.0006461343    18    Uiso    1
N20      N    0.6724326213    0.5833128396   -0.0013035048    19    Uiso    1
C21      C    0.7563666177    0.5076375942   -0.0087883139    20    Uiso    1
C22      C    0.9209416389    0.5919918738   -0.0117038220    21    Uiso    1
C23      C    0.0039180299    0.7600949932   -0.0081280681    22    Uiso    1
C24      C    0.1709010109    0.8481575202   -0.0065062123    23    Uiso    1
C25      C    0.2497408039    0.7600836702   -0.0080318024    24    Uiso    1
C26      C    0.4152876875    0.8384567766   -0.0061854212    25    Uiso    1
C27      C    0.4919246112    0.7459546239   -0.0028661420    26    Uiso    1
C28      C    0.6603508863    0.8273019492   -0.0022460799    27    Uiso    1
C29      C    0.7473086399    0.7457235448   -0.0028997127    28    Uiso    1
C30      C    0.9164555491    0.8381792094   -0.0061454999    29    Uiso    1
Fe31      Fe    0.4576428232    0.4204501970   0.0301327010    30    Uiso    1
C32      C    0.4555756629    0.3957412628   0.1713917765    31    Uiso    1
O33      O    0.4473660448    0.2887132079   0.2427349098    32    Uiso    1
H34      H    0.4529698720    0.3230682599   0.3213859270    33    Uiso    1
