data_CON2H4
_audit_creation_date              2013-05-06
_audit_creation_method            'Materials Studio'
_symmetry_space_group_name_H-M    'P1'
_symmetry_Int_Tables_number       1
_symmetry_cell_setting            triclinic
loop_
_symmetry_equiv_pos_as_xyz
  x,y,z
_cell_length_a                    9.840000144139096
_cell_length_b                    9.84000014413909600000
_cell_length_c                    11.83250177332582154904
_cell_angle_alpha                 90
_cell_angle_beta                  90
_cell_angle_gamma                 120
loop_
_atom_site_label
_atom_site_type_symbol
_atom_site_fract_x
_atom_site_fract_y
_atom_site_fract_z
_atom_site_U_iso_or_equiv
_atom_site_adp_type
_atom_site_occupancy
C1      C    -0.0005742987    0.4894239584   0.0077360354    0    Uiso    1
C2      C    0.9156263646    0.3219432680   0.0076952552    1    Uiso    1
C3      C    0.9204863161    0.5750700394   0.0087341134    2    Uiso    1
C4      C    0.1640064271    0.5751555379   0.0076371883    3    Uiso    1
C5      C    0.7510054879    0.2362738368   0.0090928608    4    Uiso    1
C6      C    -0.0053926830    0.2363124682   0.0072459563    5    Uiso    1
C7      C    0.7564388538    0.4891708005   0.0111095166    6    Uiso    1
C8      C    0.6724807058    0.3218877815   0.0114944781    7    Uiso    1
C9      C    0.2424925317    0.4894516545   0.0078348735    8    Uiso    1
C10      C    0.1588117179    0.3218782573   0.0075486351    9    Uiso    1
C11      C    0.0036266355    0.7429016489   0.0090959161    10    Uiso    1
C12      C    0.2486740764    0.7429169690   0.0088831236    11    Uiso    1
C13      C    0.6663165506    0.0685774836   0.0094697497    12    Uiso    1
C14      C    0.9115524039    0.0685898567   0.0081054039    13    Uiso    1
C15      C    0.9163797498    0.8217325130   0.0086317791    14    Uiso    1
C16      C    0.5002403523    -0.0100635852   0.0097824979    15    Uiso    1
C17      C    0.4146667801    0.8216925685   0.0088254297    16    Uiso    1
C18      C    -0.0010311491    -0.0100225525   0.0079702702    17    Uiso    1
C19      C    0.7448901236    -0.0194303278   0.0094522714    18    Uiso    1
C20      C    0.1702226573    0.8310994055   0.0099809084    19    Uiso    1
C21      C    0.7470870823    0.7291614077   0.0108726455    20    Uiso    1
C22      C    0.4237882139    0.0827682545   0.0125084567    21    Uiso    1
C23      C    0.4911224648    0.7287997758   0.0099673363    22    Uiso    1
C24      C    0.1682960438    0.0828017220   0.0097906887    23    Uiso    1
N25      N    0.6713024969    0.5663376463   0.0151723037    24    Uiso    1
N26      N    0.5106192755    0.2450722058   0.0154052649    25    Uiso    1
C27      C    0.6600506949    0.8108225095   0.0109081779    26    Uiso    1
N28      N    0.4042884257    0.5666052271   0.0104581127    27    Uiso    1
C29      C    0.2550832387    0.0007949130   0.0117407646    28    Uiso    1
N30      N    0.2434515448    0.2448556767   0.0098219132    29    Uiso    1
Fe31      Fe    0.4566494430    0.4053817645   0.0284297031    30    Uiso    1
O32      O    0.4188815949    0.4012799846   0.2124573871    31    Uiso    1
C33      C    0.4702768798    0.5192451813   0.2752259074    32    Uiso    1
H34      H    0.6867081666    0.6332822634   0.2071797986    33    Uiso    1
H35      H    0.2615275342    0.4428898111   0.3540430350    34    Uiso    1
N36      N    0.6228414927    0.6369694949   0.2733356325    35    Uiso    1
N37      N    0.3732663782    0.5332986576   0.3506017332    36    Uiso    1
H38      H    0.6526547759    0.7453913762   0.3020851598    37    Uiso    1
H39      H    0.4143946503    0.6090505460   0.4163897167    38    Uiso    1
