data_CONH2
_audit_creation_date              2013-05-06
_audit_creation_method            'Materials Studio'
_symmetry_space_group_name_H-M    'P1'
_symmetry_Int_Tables_number       1
_symmetry_cell_setting            triclinic
loop_
_symmetry_equiv_pos_as_xyz
  x,y,z
_cell_length_a                    9.840000144139096
_cell_length_b                    9.84000014413909600000
_cell_length_c                    11.83250177332582154904
_cell_angle_alpha                 90
_cell_angle_beta                  90
_cell_angle_gamma                 120
loop_
_atom_site_label
_atom_site_type_symbol
_atom_site_fract_x
_atom_site_fract_y
_atom_site_fract_z
_atom_site_U_iso_or_equiv
_atom_site_adp_type
_atom_site_occupancy
C1      C    -0.0004665917    0.4932552600   0.0046173158    0    Uiso    1
C2      C    0.9158037853    0.3258324907   0.0044314104    1    Uiso    1
C3      C    0.9206015338    0.5789016156   0.0061978468    2    Uiso    1
C4      C    0.1641465160    0.5789746008   0.0051297656    3    Uiso    1
C5      C    0.7512174909    0.2400964442   0.0060884225    4    Uiso    1
C6      C    -0.0053128532    0.2401278681   0.0042659356    5    Uiso    1
C7      C    0.7564751836    0.4927619239   0.0088658687    6    Uiso    1
C8      C    0.6728537493    0.3258804458   0.0087811955    7    Uiso    1
C9      C    0.2422923866    0.4930021854   0.0062154527    8    Uiso    1
C10      C    0.1588153234    0.3258494403   0.0050285293    9    Uiso    1
C11      C    0.0037478226    0.7466500882   0.0072950862    10    Uiso    1
C12      C    0.2488589023    0.7466858358   0.0070007607    11    Uiso    1
C13      C    0.6664935300    0.0724278874   0.0071064166    12    Uiso    1
C14      C    0.9117269781    0.0723965900   0.0058594498    13    Uiso    1
C15      C    0.9165207537    0.8255108814   0.0074843552    14    Uiso    1
C16      C    0.5004317121    -0.0063289244   0.0079614166    15    Uiso    1
C17      C    0.4148169198    0.8254413450   0.0075400547    16    Uiso    1
C18      C    -0.0009779035    -0.0063123726   0.0064571843    17    Uiso    1
C19      C    0.7451269933    -0.0154700361   0.0074483646    18    Uiso    1
C20      C    0.1703510260    0.8347892256   0.0080743058    19    Uiso    1
C21      C    0.7471511623    0.7331350263   0.0103587962    20    Uiso    1
C22      C    0.4237622144    0.0863159140   0.0107657481    21    Uiso    1
C23      C    0.4913705080    0.7326687171   0.0096556161    22    Uiso    1
C24      C    0.1684289857    0.0864435784   0.0082771918    23    Uiso    1
N25      N    0.6713374627    0.5699880908   0.0148027469    24    Uiso    1
N26      N    0.5108823790    0.2486162526   0.0135148412    25    Uiso    1
C27      C    0.6601734348    0.8147410809   0.0097672532    26    Uiso    1
N28      N    0.4043002495    0.5702745438   0.0115315497    27    Uiso    1
C29      C    0.2551952720    0.0044968081   0.0101698099    28    Uiso    1
N30      N    0.2432592065    0.2484436770   0.0079552077    29    Uiso    1
Fe31      Fe    0.4567460178    0.4087729749   0.0270683688    30    Uiso    1
O32      O    0.4182171644    0.3822573153   0.2108919177    31    Uiso    1
C33      C    0.4885095857    0.4760677850   0.2873043594    32    Uiso    1
H34      H    0.6659769447    0.6597323785   0.2012249571    33    Uiso    1
N35      N    0.6144507820    0.6171891457   0.2784949050    34    Uiso    1
H36      H    0.6607368097    0.6845149021   0.3480531091    35    Uiso    1
