data_COOH
_audit_creation_date              2013-05-06
_audit_creation_method            'Materials Studio'
_symmetry_space_group_name_H-M    'P1'
_symmetry_Int_Tables_number       1
_symmetry_cell_setting            triclinic
loop_
_symmetry_equiv_pos_as_xyz
  x,y,z
_cell_length_a                    9.840000144139096
_cell_length_b                    9.84000014413909600000
_cell_length_c                    11.83250177332582154904
_cell_angle_alpha                 90
_cell_angle_beta                  90
_cell_angle_gamma                 120
loop_
_atom_site_label
_atom_site_type_symbol
_atom_site_fract_x
_atom_site_fract_y
_atom_site_fract_z
_atom_site_U_iso_or_equiv
_atom_site_adp_type
_atom_site_occupancy
C1      C    0.001620866    0.001714754   -0.006227194    0    Uiso    1
C2      C    0.170729101    0.094086933   -0.003494113    1    Uiso    1
C3      C    0.257829069    0.012818161   -0.002880584    2    Uiso    1
C4      C    0.426204180    0.094085034   -0.003984145    3    Uiso    1
C5      C    0.502941052    0.001703953   -0.006485054    4    Uiso    1
C6      C    0.668283830    0.079541615   -0.008152902    5    Uiso    1
C7      C    0.747134889    -0.008575661   -0.006594726    6    Uiso    1
C8      C    0.914110665    0.079547517   -0.007828382    7    Uiso    1
C9      C    -0.002543864    0.247969991   -0.010695831    8    Uiso    1
C10      C    0.161416559    0.332774791   -0.007932938    9    Uiso    1
N11      N    0.247404239    0.257888145   -0.001704083    10    Uiso    1
N12      N    0.513358453    0.257891163   -0.002777567    11    Uiso    1
C13      C    0.674217540    0.332772413   -0.009142523    12    Uiso    1
C14      C    0.753379195    0.247959961   -0.011331191    13    Uiso    1
C15      C    0.918308113    0.333740003   -0.013175807    14    Uiso    1
C16      C    0.001639407    0.500395692   -0.013157343    15    Uiso    1
C17      C    0.166513090    0.586231147   -0.010955293    16    Uiso    1
C18      C    0.246002804    0.501662104   -0.008496664    17    Uiso    1
N19      N    0.406569374    0.576626099   -0.003705778    18    Uiso    1
N20      N    0.672932840    0.576636031   -0.004822237    19    Uiso    1
C21      C    0.758526595    0.501675011   -0.009718762    20    Uiso    1
C22      C    0.922586261    0.586244319   -0.011604925    21    Uiso    1
C23      C    0.005735412    0.754527993   -0.008289881    22    Uiso    1
C24      C    0.172605956    0.842373178   -0.006209603    23    Uiso    1
C25      C    0.251638778    0.754521407   -0.007930160    24    Uiso    1
C26      C    0.417109862    0.832285233   -0.006459780    25    Uiso    1
C27      C    0.493816648    0.739927010   -0.004434096    26    Uiso    1
C28      C    0.662023696    0.821193664   -0.003841519    27    Uiso    1
C29      C    0.748964112    0.739922727   -0.004955844    28    Uiso    1
C30      C    0.918028548    0.832291934   -0.006774889    29    Uiso    1
Fe31      Fe    0.460477091    0.417828382   0.014489959    30    Uiso    1
C32      C    0.467018508    0.426462656   0.177202556    31    Uiso    1
H33      H    0.354520385    0.200962429   0.180659656    32    Uiso    1
O34      O    0.529092612    0.548914578   0.229362907    33    Uiso    1
O35      O    0.398154128    0.286829634   0.235250706    34    Uiso    1
