data_H
_audit_creation_date              2013-05-06
_audit_creation_method            'Materials Studio'
_symmetry_space_group_name_H-M    'P1'
_symmetry_Int_Tables_number       1
_symmetry_cell_setting            triclinic
loop_
_symmetry_equiv_pos_as_xyz
  x,y,z
_cell_length_a                    9.840000144139096
_cell_length_b                    9.84000014413909600000
_cell_length_c                    11.83250177332582154904
_cell_angle_alpha                 90
_cell_angle_beta                  90
_cell_angle_gamma                 120
loop_
_atom_site_label
_atom_site_type_symbol
_atom_site_fract_x
_atom_site_fract_y
_atom_site_fract_z
_atom_site_U_iso_or_equiv
_atom_site_adp_type
_atom_site_occupancy
C1      C    0.001732008    0.004083238   -0.007304116    0    Uiso    1
C2      C    0.170807167    0.096280690   -0.005782052    1    Uiso    1
C3      C    0.257745179    0.015094533   -0.005401683    2    Uiso    1
C4      C    0.425868210    0.096282154   -0.005669579    3    Uiso    1
C5      C    0.502749627    0.004087342   -0.007276520    4    Uiso    1
C6      C    0.668191543    0.081819414   -0.007793493    5    Uiso    1
C7      C    0.747157112    -0.006081972   -0.006929950    6    Uiso    1
C8      C    0.914023080    0.081816717   -0.007879691    7    Uiso    1
C9      C    -0.002750705    0.250178045   -0.009481594    8    Uiso    1
C10      C    0.161267953    0.334992415   -0.008520706    9    Uiso    1
N11      N    0.247547327    0.260207886   -0.005299399    10    Uiso    1
N12      N    0.513046447    0.260209771   -0.004993584    11    Uiso    1
C13      C    0.674113570    0.334994637   -0.008103256    12    Uiso    1
C14      C    0.753317104    0.250182060   -0.009255458    13    Uiso    1
C15      C    0.918205678    0.336025722   -0.010275449    14    Uiso    1
C16      C    0.001517917    0.502640960   -0.010260356    15    Uiso    1
C17      C    0.166410076    0.588489893   -0.009487270    16    Uiso    1
C18      C    0.245613433    0.503677052   -0.008538001    17    Uiso    1
N19      N    0.406678259    0.578465025   -0.005337894    18    Uiso    1
N20      N    0.672180502    0.578464927   -0.004970388    19    Uiso    1
C21      C    0.758460621    0.503676711   -0.008080134    20    Uiso    1
C22      C    0.922476279    0.588487149   -0.009207512    21    Uiso    1
C23      C    0.005710840    0.756849955   -0.007723491    22    Uiso    1
C24      C    0.172578255    0.844753165   -0.006908769    23    Uiso    1
C25      C    0.251542075    0.756852730   -0.007904363    24    Uiso    1
C26      C    0.416984889    0.834588084   -0.007373067    25    Uiso    1
C27      C    0.493864353    0.742392554   -0.005831915    26    Uiso    1
C28      C    0.661988290    0.823577138   -0.005410094    27    Uiso    1
C29      C    0.748927337    0.742391788   -0.005623829    28    Uiso    1
C30      C    0.918001557    0.834583010   -0.007195531    29    Uiso    1
Fe31      Fe    0.459839042    0.419342744   0.005686986    30    Uiso    1
H32      H    0.459510910    0.419498108   0.131562971    31    Uiso    1
