data_H2COH
_audit_creation_date              2013-05-06
_audit_creation_method            'Materials Studio'
_symmetry_space_group_name_H-M    'P1'
_symmetry_Int_Tables_number       1
_symmetry_cell_setting            triclinic
loop_
_symmetry_equiv_pos_as_xyz
  x,y,z
_cell_length_a                    13.000000078569062
_cell_length_b                    13.00000007856906200000
_cell_length_c                    12.00000107252529404377
_cell_angle_alpha                 90
_cell_angle_beta                  90
_cell_angle_gamma                 90
loop_
_atom_site_label
_atom_site_type_symbol
_atom_site_fract_x
_atom_site_fract_y
_atom_site_fract_z
_atom_site_U_iso_or_equiv
_atom_site_adp_type
_atom_site_occupancy
H1      H    0.1353854027    0.3026363102   1.0519715522    0    Uiso    1
C2      C    0.2184793019    0.3099910450   1.0561233020    1    Uiso    1
H3      H    0.4966580034    0.8423706838   1.0541037767    2    Uiso    1
H4      H    0.2801190636    0.1518145440   1.0565787048    3    Uiso    1
H5      H    0.1418371276    0.5033490576   1.0537795013    4    Uiso    1
C6      C    0.2908163181    0.2346254538   1.0585144780    5    Uiso    1
H7      H    0.1450622535    0.7032922166   1.0480133966    6    Uiso    1
C8      C    0.2255638716    0.5013088387   1.0557612604    7    Uiso    1
C9      C    0.2728012141    0.4065415107   1.0583541339    8    Uiso    1
C10      C    0.2277924925    0.6923036889   1.0505227724    9    Uiso    1
H11      H    0.4809239106    0.1499507224   1.0633352273    10    Uiso    1
C12      C    0.2774716350    0.5942738450   1.0540843805    11    Uiso    1
C13      C    0.3895356291    0.2848711976   1.0621662047    12    Uiso    1
N14      N    0.3782081228    0.3909099303   1.0626662072    13    Uiso    1
C15      C    0.3037745592    0.7649054665   1.0503103272    14    Uiso    1
H16      H    0.2962134020    0.8480406763   1.0478702414    15    Uiso    1
C17      C    0.4823413453    0.2337270463   1.0630902685    16    Uiso    1
N18      N    0.3833977446    0.6058075496   1.0547696017    17    Uiso    1
C19      C    0.3996187478    0.7110623740   1.0535907692    18    Uiso    1
C20      C    0.5776143553    0.2815062427   1.0609086887    19    Uiso    1
N21      N    0.5938837041    0.3868164254   1.0586748827    20    Uiso    1
C22      C    0.4950096249    0.7586010125   1.0550730509    21    Uiso    1
H23      H    0.6805326427    0.1441655195   1.0596006155    22    Uiso    1
C24      C    0.6733237188    0.2273757813   1.0591713178    23    Uiso    1
N25      N    0.5992026933    0.6014985938   1.0577703395    24    Uiso    1
C26      C    0.5878243994    0.7074076093   1.0557534432    25    Uiso    1
C27      C    0.6999000086    0.3979744883   1.0565869964    26    Uiso    1
C28      C    0.7494381142    0.2997921664   1.0564308275    27    Uiso    1
C29      C    0.7045521689    0.5857494668   1.0552129834    28    Uiso    1
C30      C    0.7518598941    0.4909701836   1.0553149808    29    Uiso    1
H31      H    0.8321398259    0.2884860219   1.0542562609    30    Uiso    1
C32      C    0.6866334411    0.7576026815   1.0520078381    31    Uiso    1
H33      H    0.6974542751    0.8403636192   1.0491019684    32    Uiso    1
C34      C    0.7589415581    0.6822741201   1.0514681480    33    Uiso    1
H35      H    0.8355879401    0.4888456054   1.0537439598    34    Uiso    1
H36      H    0.8420609005    0.6894534106   1.0477843192    35    Uiso    1
Fe37      Fe    0.4885136372    0.4973399977   0.0710137843    36    Uiso    1
C38      C    0.4890743921    0.5149034182   0.2361006378    37    Uiso    1
H39      H    0.5534160277    0.4634393062   0.2578023109    38    Uiso    1
O40      O    0.3973616588    0.4918436527   0.2901968544    39    Uiso    1
H41      H    0.3821928720    0.4188427368   0.2799291127    40    Uiso    1
H42      H    0.5070270003    0.5958937795   0.2518695729    41    Uiso    1
