data_H2O2
_audit_creation_date              2013-05-06
_audit_creation_method            'Materials Studio'
_symmetry_space_group_name_H-M    'P1'
_symmetry_Int_Tables_number       1
_symmetry_cell_setting            triclinic
loop_
_symmetry_equiv_pos_as_xyz
  x,y,z
_cell_length_a                    9.840000144139096
_cell_length_b                    9.84000014413909600000
_cell_length_c                    11.83250177332582154904
_cell_angle_alpha                 90
_cell_angle_beta                  90
_cell_angle_gamma                 120
loop_
_atom_site_label
_atom_site_type_symbol
_atom_site_fract_x
_atom_site_fract_y
_atom_site_fract_z
_atom_site_U_iso_or_equiv
_atom_site_adp_type
_atom_site_occupancy
C1      C    0.0076617251    0.4976234750   -0.0074371562    0    Uiso    1
C2      C    0.9240187911    0.3302273180   -0.0074305496    1    Uiso    1
C3      C    0.9287635453    0.5831007040   -0.0084381141    2    Uiso    1
C4      C    0.1720658880    0.5830524657   -0.0080814942    3    Uiso    1
C5      C    0.7596665621    0.2448869518   -0.0083459331    4    Uiso    1
C6      C    0.0030130212    0.2448498852   -0.0081857505    5    Uiso    1
C7      C    0.7643585052    0.4981188133   -0.0094024324    6    Uiso    1
C8      C    0.6802535578    0.3299050899   -0.0092396628    7    Uiso    1
C9      C    0.2514439563    0.4980215728   -0.0087057910    8    Uiso    1
C10      C    0.1674500559    0.3298050593   -0.0090002551    9    Uiso    1
C11      C    0.0116231137    0.7505760889   -0.0094424434    10    Uiso    1
C12      C    0.2567010021    0.7505833395   -0.0091580984    11    Uiso    1
C13      C    0.9201830000    0.0773763301   -0.0093312305    12    Uiso    1
C14      C    0.6750127293    0.0773976733   -0.0093426648    13    Uiso    1
C15      C    0.9252529439    0.8304017744   -0.0101198957    14    Uiso    1
C16      C    0.5088223190    -0.0023408288   -0.0099721292    15    Uiso    1
C17      C    0.4229323750    0.8304450907   -0.0098577747    16    Uiso    1
C18      C    0.0065746102    -0.0023873077   -0.0100177697    17    Uiso    1
C19      C    0.7535847429    -0.0106315708   -0.0097715600    18    Uiso    1
C20      C    0.1782273068    0.8387027194   -0.0097400570    19    Uiso    1
C21      C    0.7562597994    0.7381777969   -0.0107482921    20    Uiso    1
C22      C    0.4320015187    0.0898360024   -0.0105497412    21    Uiso    1
C23      C    0.4997520680    0.7382452518   -0.0102793381    22    Uiso    1
C24      C    0.1755811238    0.0899199370   -0.0106582907    23    Uiso    1
N25      N    0.6840895900    0.5787971033   -0.0111834844    24    Uiso    1
N26      N    0.5193440834    0.2492436705   -0.0106965231    25    Uiso    1
C27      C    0.6689072394    0.8200159426   -0.0106133872    26    Uiso    1
N28      N    0.4124999513    0.5787667721   -0.0098912987    27    Uiso    1
C29      C    0.2628885977    0.0080302517   -0.0106707102    28    Uiso    1
N30      N    0.2476553161    0.2492430116   -0.0111307687    29    Uiso    1
Cu31      Cu    0.4658985403    0.4137665572   -0.0087466847    30    Uiso    1
O32      O    0.4708369870    0.4249883824   0.2193019599    31    Uiso    1
H33      H    0.5162458118    0.3910658748   0.2793020057    32    Uiso    1
O34      O    0.3340819714    0.4125536303   0.2798727420    33    Uiso    1
H35      H    0.3537584063    0.5196557144   0.2673413169    34    Uiso    1
