data_H2S
_audit_creation_date              2013-05-06
_audit_creation_method            'Materials Studio'
_symmetry_space_group_name_H-M    'P1'
_symmetry_Int_Tables_number       1
_symmetry_cell_setting            triclinic
loop_
_symmetry_equiv_pos_as_xyz
  x,y,z
_cell_length_a                    13.000000078569062
_cell_length_b                    13.00000007856906200000
_cell_length_c                    12.00000107252529404377
_cell_angle_alpha                 90
_cell_angle_beta                  90
_cell_angle_gamma                 90
loop_
_atom_site_label
_atom_site_type_symbol
_atom_site_fract_x
_atom_site_fract_y
_atom_site_fract_z
_atom_site_U_iso_or_equiv
_atom_site_adp_type
_atom_site_occupancy
H1      H    0.1350248785    0.3017314471   1.0445784110    0    Uiso    1
H2      H    0.2802008940    0.1508164397   1.0457030933    1    Uiso    1
C3      C    0.2181964133    0.3089505695   1.0466486824    2    Uiso    1
H4      H    0.1406464997    0.5016985008   1.0463628763    3    Uiso    1
C5      C    0.2907046390    0.2336221232   1.0471730116    4    Uiso    1
H6      H    0.1428368367    0.7019902196   1.0447524055    5    Uiso    1
C7      C    0.2243795536    0.5000695797   1.0481961483    6    Uiso    1
C8      C    0.2723371914    0.4053409764   1.0488842357    7    Uiso    1
C9      C    0.2256152452    0.6913911211   1.0465448351    8    Uiso    1
C10      C    0.2758818171    0.5929512541   1.0480952317    9    Uiso    1
C11      C    0.3891259878    0.2840207035   1.0498315387    10    Uiso    1
H12      H    0.4802104264    0.1486945627   1.0490286365    11    Uiso    1
C13      C    0.3010583157    0.7638950220   1.0475131886    12    Uiso    1
H14      H    0.2938511616    0.8470676582   1.0467975246    13    Uiso    1
N15      N    0.3774671827    0.3896556807   1.0508990182    14    Uiso    1
C16      C    0.4819035202    0.2324187981   1.0505909805    15    Uiso    1
N17      N    0.3815756651    0.6045278570   1.0496776023    16    Uiso    1
C18      C    0.3973934666    0.7096958100   1.0494355126    17    Uiso    1
H19      H    0.4938979736    0.8412347376   1.0503083102    18    Uiso    1
C20      C    0.4922429910    0.7574822839   1.0507253276    19    Uiso    1
C21      C    0.5767488004    0.2801620209   1.0518449732    20    Uiso    1
H22      H    0.6804140529    0.1428092519   1.0498071520    21    Uiso    1
C23      C    0.6731095159    0.2259649821   1.0513695840    22    Uiso    1
C24      C    0.5851011409    0.7059215725   1.0511516516    23    Uiso    1
N25      N    0.5924695880    0.3852659234   1.0534062499    24    Uiso    1
N26      N    0.5966919876    0.6002334498   1.0517122485    25    Uiso    1
C27      C    0.6981644601    0.3968134399   1.0539691553    26    Uiso    1
C28      C    0.7485291266    0.2983866619   1.0528934374    27    Uiso    1
C29      C    0.6835086837    0.7563276131   1.0516610194    28    Uiso    1
C30      C    0.7018321536    0.5845113886   1.0529419816    29    Uiso    1
H31      H    0.6940228087    0.8391619550   1.0515952004    30    Uiso    1
C32      C    0.7496645874    0.4896636841   1.0545244841    31    Uiso    1
H33      H    0.8313691449    0.2877846493   1.0529103961    32    Uiso    1
C34      C    0.7560197398    0.6808939217   1.0527753898    33    Uiso    1
H35      H    0.8334115661    0.4881337787   1.0548787601    34    Uiso    1
H36      H    0.8391663860    0.6882590076   1.0537917598    35    Uiso    1
Fe37      Fe    0.4869249912    0.4949566844   0.0593658296    36    Uiso    1
S38      S    0.4858469187    0.4964951180   0.2701075394    37    Uiso    1
H39      H    0.4388158605    0.5887291886   0.2835316378    38    Uiso    1
H40      H    0.5799978279    0.5388403641   0.2858949793    39    Uiso    1
