data_Li2S
_audit_creation_date              2013-05-06
_audit_creation_method            'Materials Studio'
_symmetry_space_group_name_H-M    'P1'
_symmetry_Int_Tables_number       1
_symmetry_cell_setting            triclinic
loop_
_symmetry_equiv_pos_as_xyz
  x,y,z
_cell_length_a                    9.840000144139096
_cell_length_b                    9.84000014413909600000
_cell_length_c                    11.83250177332582154904
_cell_angle_alpha                 90
_cell_angle_beta                  90
_cell_angle_gamma                 120
loop_
_atom_site_label
_atom_site_type_symbol
_atom_site_fract_x
_atom_site_fract_y
_atom_site_fract_z
_atom_site_U_iso_or_equiv
_atom_site_adp_type
_atom_site_occupancy
C1      C    0.0060811437    0.4972316427   -0.0119598828    0    Uiso    1
C2      C    0.9216184940    0.3297924196   -0.0119266357    1    Uiso    1
C3      C    0.9268215934    0.5827248378   -0.0108557317    2    Uiso    1
C4      C    0.1707274471    0.5831315663   -0.0090584056    3    Uiso    1
C5      C    0.7569345533    0.2439027403   -0.0108722077    4    Uiso    1
C6      C    0.0008235684    0.2443033407   -0.0088152152    5    Uiso    1
C7      C    0.7623772579    0.4963731487   -0.0073310971    6    Uiso    1
C8      C    0.6776225354    0.3292479047   -0.0080232514    7    Uiso    1
C9      C    0.2499540764    0.4977353953   -0.0044843207    8    Uiso    1
C10      C    0.1651827777    0.3306180699   -0.0034923107    9    Uiso    1
C11      C    0.0100922108    0.7505429143   -0.0080531474    10    Uiso    1
C12      C    0.2552749089    0.7505991416   -0.0073225670    11    Uiso    1
C13      C    0.9176417801    0.0765300770   -0.0070258464    12    Uiso    1
C14      C    0.6724256846    0.0764528771   -0.0082478339    13    Uiso    1
C15      C    0.9226074050    0.8296232517   -0.0073904437    14    Uiso    1
C16      C    0.5064038374    -0.0025599762   -0.0071794772    15    Uiso    1
C17      C    0.4213043076    0.8295776032   -0.0064542777    16    Uiso    1
C18      C    0.0051897905    -0.0024699137   -0.0063386169    17    Uiso    1
C19      C    0.7511186409    -0.0113985565   -0.0061556277    18    Uiso    1
C20      C    0.1765983775    0.8384812387   -0.0059590447    19    Uiso    1
C21      C    0.7537211837    0.7381229120   -0.0033476346    20    Uiso    1
C22      C    0.4300465460    0.0903256719   -0.0035449720    21    Uiso    1
C23      C    0.4976590423    0.7367124664   -0.0023659546    22    Uiso    1
C24      C    0.1739575393    0.0888955945   -0.0011201598    23    Uiso    1
N25      N    0.6778759202    0.5748272786   0.0037930802    24    Uiso    1
N26      N    0.5167627284    0.2519439643   -0.0011419818    25    Uiso    1
C27      C    0.6664317807    0.8193382449   -0.0024723588    26    Uiso    1
N28      N    0.4110183024    0.5751070148   0.0019593022    27    Uiso    1
C29      C    0.2612351146    0.0077315294   -0.0019501851    28    Uiso    1
N30      N    0.2497067892    0.2520893241   0.0078174349    29    Uiso    1
Fe31      Fe    0.4644560395    0.4134550534   0.0273770106    30    Uiso    1
Li32      Li    0.2269502937    0.2749394367   0.1845943356    31    Uiso    1
Li33      Li    0.7125094849    0.5673804264   0.1802985552    32    Uiso    1
S34      S    0.4720660376    0.4114845392   0.2349590427    33    Uiso    1
