data_Li2S8
_audit_creation_date              2013-05-06
_audit_creation_method            'Materials Studio'
_symmetry_space_group_name_H-M    'P1'
_symmetry_Int_Tables_number       1
_symmetry_cell_setting            triclinic
loop_
_symmetry_equiv_pos_as_xyz
  x,y,z
_cell_length_a                    9.840000144139096
_cell_length_b                    9.84000014413909600000
_cell_length_c                    11.83250177332582154904
_cell_angle_alpha                 90
_cell_angle_beta                  90
_cell_angle_gamma                 120
loop_
_atom_site_label
_atom_site_type_symbol
_atom_site_fract_x
_atom_site_fract_y
_atom_site_fract_z
_atom_site_U_iso_or_equiv
_atom_site_adp_type
_atom_site_occupancy
C1      C    0.0062446529    0.4967576557   0.0036789808    0    Uiso    1
C2      C    0.9224490417    0.3292052519   0.0036162955    1    Uiso    1
C3      C    0.9277087075    0.5827058582   0.0045362468    2    Uiso    1
C4      C    0.1708408853    0.5823764190   0.0028142654    3    Uiso    1
C5      C    0.7580200828    0.2432737562   0.0046781525    4    Uiso    1
C6      C    0.0013685225    0.2435377535   0.0019338386    5    Uiso    1
C7      C    0.7631635065    0.4965455561   0.0055237118    6    Uiso    1
C8      C    0.6796687777    0.3294073148   0.0056716453    7    Uiso    1
C9      C    0.2490358668    0.4965158541   0.0015929963    8    Uiso    1
C10      C    0.1654493557    0.3294393171   0.0001017634    9    Uiso    1
C11      C    0.0102391163    0.7501088963   0.0033507596    10    Uiso    1
C12      C    0.2553954394    0.7500052034   0.0031197942    11    Uiso    1
C13      C    0.9183331710    0.0759358633   0.0018550777    12    Uiso    1
C14      C    0.6731352028    0.0758780258   0.0040311381    13    Uiso    1
C15      C    0.9228585932    0.8288724206   0.0026742499    14    Uiso    1
C16      C    0.5070035165    -0.0029863077   0.0038969627    15    Uiso    1
C17      C    0.4213975576    0.8288596976   0.0031156425    16    Uiso    1
C18      C    0.0053554699    -0.0030420373   0.0010577445    17    Uiso    1
C19      C    0.7517612407    -0.0119756186   0.0028796115    18    Uiso    1
C20      C    0.1767026693    0.8379115450   0.0028261734    19    Uiso    1
C21      C    0.7535074140    0.7367926234   0.0036885143    20    Uiso    1
C22      C    0.4297427739    0.0890786949   0.0039702576    21    Uiso    1
C23      C    0.4983713446    0.7363934287   0.0026668238    22    Uiso    1
C24      C    0.1748126449    0.0894674231   -0.0001436232    23    Uiso    1
N25      N    0.6778494440    0.5742197098   0.0056312518    24    Uiso    1
N26      N    0.5167655081    0.2516191795   0.0060354470    25    Uiso    1
C27      C    0.6669818641    0.8184024572   0.0027698043    26    Uiso    1
N28      N    0.4112101374    0.5743438124   0.0017333356    27    Uiso    1
C29      C    0.2615745665    0.0075737015   0.0019414617    28    Uiso    1
N30      N    0.2495741577    0.2515111140   -0.0023186460    29    Uiso    1
Fe31      Fe    0.4635978137    0.4128738495   0.0045505511    30    Uiso    1
Li32      Li    0.6671234645    0.4206970079   0.2009583016    31    Uiso    1
S33      S    0.2849903373    0.2212432316   0.2643102194    32    Uiso    1
S34      S    0.6793028015    0.7893865806   0.2994135568    33    Uiso    1
S35      S    0.3744577696    0.0891194320   0.3233303758    34    Uiso    1
S36      S    0.7790883712    0.6487130361   0.3222291775    35    Uiso    1
S37      S    0.2870001937    0.5499075182   0.3574995157    36    Uiso    1
S38      S    0.6148834524    0.2262135515   0.3462090961    37    Uiso    1
S39      S    0.2437333053    0.3333964965   0.4117465806    38    Uiso    1
S40      S    0.5087374262    0.7279207207   0.4183605361    39    Uiso    1
Li41      Li    0.5701390262    0.4361651857   0.4251699855    40    Uiso    1
