data_Li2S6
_audit_creation_date              2013-05-06
_audit_creation_method            'Materials Studio'
_symmetry_space_group_name_H-M    'P1'
_symmetry_Int_Tables_number       1
_symmetry_cell_setting            triclinic
loop_
_symmetry_equiv_pos_as_xyz
  x,y,z
_cell_length_a                    9.840000144139096
_cell_length_b                    9.84000014413909600000
_cell_length_c                    11.83250177332582154904
_cell_angle_alpha                 90
_cell_angle_beta                  90
_cell_angle_gamma                 120
loop_
_atom_site_label
_atom_site_type_symbol
_atom_site_fract_x
_atom_site_fract_y
_atom_site_fract_z
_atom_site_U_iso_or_equiv
_atom_site_adp_type
_atom_site_occupancy
C1      C    0.0123304708    0.4785091634   -0.0005306394    0    Uiso    1
C2      C    0.9286325362    0.3109123170   -0.0001247800    1    Uiso    1
C3      C    0.9335297223    0.5642224221   0.0014065728    2    Uiso    1
C4      C    0.1768186949    0.5645021110   0.0004915376    3    Uiso    1
C5      C    0.7640644001    0.2251836740   0.0009642631    4    Uiso    1
C6      C    0.0071569740    0.2248907686   0.0020489054    5    Uiso    1
C7      C    0.7695370368    0.4782469141   0.0029439961    6    Uiso    1
C8      C    0.6859785274    0.3110956783   0.0022462684    7    Uiso    1
C9      C    0.2550796940    0.4781947417   0.0032149154    8    Uiso    1
C10      C    0.1716882557    0.3108831413   0.0041068323    9    Uiso    1
C11      C    0.0165878831    0.7318490503   0.0036005683    10    Uiso    1
C12      C    0.2617401176    0.7320018131   0.0021370230    11    Uiso    1
C13      C    0.9245194759    0.0574098907   0.0037599601    12    Uiso    1
C14      C    0.6794105753    0.0575142310   0.0026025309    13    Uiso    1
C15      C    0.9293960854    0.8106084355   0.0047980638    14    Uiso    1
C16      C    0.5134104004    -0.0212731559   0.0031411459    15    Uiso    1
C17      C    0.4278587916    0.8106507793   0.0029050671    16    Uiso    1
C18      C    0.0119213219    -0.0213190951   0.0050393351    17    Uiso    1
C19      C    0.7580222653    -0.0304596019   0.0037185203    18    Uiso    1
C20      C    0.1831703707    0.8198499957   0.0039343650    19    Uiso    1
C21      C    0.7599256518    0.7178969519   0.0058190830    20    Uiso    1
C22      C    0.4366626468    0.0713664017   0.0049675892    21    Uiso    1
C23      C    0.5049201096    0.7184521309   0.0049329901    22    Uiso    1
C24      C    0.1812359972    0.0711185083   0.0066992123    23    Uiso    1
N25      N    0.6850912388    0.5558622760   0.0068241341    24    Uiso    1
N26      N    0.5239434554    0.2333939642   0.0055314586    25    Uiso    1
C27      C    0.6731726185    0.7999400432   0.0053199068    26    Uiso    1
N28      N    0.4180516018    0.5560258464   0.0079729484    27    Uiso    1
C29      C    0.2679255829    -0.0105707958   0.0061836058    28    Uiso    1
N30      N    0.2565884614    0.2333788413   0.0078333337    29    Uiso    1
Fe31      Fe    0.4710032998    0.3945865970   0.0176293082    30    Uiso    1
Li32      Li    0.2391864495    0.4332123265   0.2022169650    31    Uiso    1
S33      S    0.4757970243    0.3513564433   0.2551267212    32    Uiso    1
S34      S    0.6274960967    0.5543809051   0.3423941250    33    Uiso    1
S35      S    0.5973536090    0.7418158928   0.2885603261    34    Uiso    1
S36      S    0.2054874548    0.6178112347   0.3202662210    35    Uiso    1
S37      S    0.2529124200    0.2485697132   0.3252181340    36    Uiso    1
S38      S    0.4285916922    0.7505175641   0.3888297536    37    Uiso    1
Li39      Li    0.2721351828    0.4638270610   0.4356883061    38    Uiso    1
