data_Na
_audit_creation_date              2013-05-06
_audit_creation_method            'Materials Studio'
_symmetry_space_group_name_H-M    'P1'
_symmetry_Int_Tables_number       1
_symmetry_cell_setting            triclinic
loop_
_symmetry_equiv_pos_as_xyz
  x,y,z
_cell_length_a                    9.840000144139096
_cell_length_b                    9.84000014413909600000
_cell_length_c                    11.83250177332582154904
_cell_angle_alpha                 90
_cell_angle_beta                  90
_cell_angle_gamma                 120
loop_
_atom_site_label
_atom_site_type_symbol
_atom_site_fract_x
_atom_site_fract_y
_atom_site_fract_z
_atom_site_U_iso_or_equiv
_atom_site_adp_type
_atom_site_occupancy
C1      C    0.0013960739    0.0035497154   -0.0098353079    0    Uiso    1
C2      C    0.1706787218    0.0960115320   -0.0098934445    1    Uiso    1
C3      C    0.2573123327    0.0141907556   -0.0096901665    2    Uiso    1
C4      C    0.4257658009    0.0960167334   -0.0098572618    3    Uiso    1
C5      C    0.5025836209    0.0035510154   -0.0098139643    4    Uiso    1
C6      C    0.6686993743    0.0821847698   -0.0094630674    5    Uiso    1
C7      C    0.7473719425    -0.0056825513   -0.0094411910    6    Uiso    1
C8      C    0.9139172740    0.0821863428   -0.0094940353    7    Uiso    1
C9      C    -0.0029193334    0.2500322032   -0.0093829326    8    Uiso    1
C10      C    0.1611224918    0.3360535654   -0.0097687886    9    Uiso    1
N11      N    0.2471087840    0.2593473297   -0.0098278247    10    Uiso    1
N12      N    0.5126659225    0.2593468385   -0.0097483687    11    Uiso    1
C13      C    0.6753556673    0.3360521446   -0.0096586015    12    Uiso    1
C14      C    0.7533768133    0.2500328920   -0.0093205321    13    Uiso    1
C15      C    0.9180320083    0.3356339521   -0.0092075607    14    Uiso    1
C16      C    0.0017526961    0.5030772242   -0.0092123450    15    Uiso    1
C17      C    0.1664052898    0.5886650354   -0.0093887214    16    Uiso    1
C18      C    0.2444191728    0.5026233750   -0.0097745213    17    Uiso    1
N19      N    0.4071049030    0.5792958103   -0.0098383720    18    Uiso    1
N20      N    0.6726223723    0.5792952391   -0.0097773192    19    Uiso    1
C21      C    0.7586279632    0.5026195386   -0.0096681134    20    Uiso    1
C22      C    0.9226864391    0.5886616931   -0.0093246020    21    Uiso    1
C23      C    0.0058589903    0.7565128519   -0.0094632032    22    Uiso    1
C24      C    0.1724056277    0.8443804164   -0.0094401312    23    Uiso    1
C25      C    0.2510866087    0.7565147067   -0.0094974383    24    Uiso    1
C26      C    0.4171939455    0.8351245876   -0.0098385029    25    Uiso    1
C27      C    0.4940084784    0.7426481853   -0.0098995402    26    Uiso    1
C28      C    0.6624639080    0.8244969717   -0.0096941561    27    Uiso    1
C29      C    0.7490660586    0.7426416081   -0.0098649138    28    Uiso    1
C30      C    0.9183609460    0.8351227072   -0.0098115697    29    Uiso    1
Fe31      Fe    0.4598814869    0.4193284913   -0.0098168421    30    Uiso    1
Na32      Na    0.4588935538    0.4193879646   0.2161441524    31    Uiso    1
