data_NO
_audit_creation_date              2013-05-06
_audit_creation_method            'Materials Studio'
_symmetry_space_group_name_H-M    'P1'
_symmetry_Int_Tables_number       1
_symmetry_cell_setting            triclinic
loop_
_symmetry_equiv_pos_as_xyz
  x,y,z
_cell_length_a                    13.000000078569062
_cell_length_b                    13.00000007856906200000
_cell_length_c                    12.00000107252529404377
_cell_angle_alpha                 90
_cell_angle_beta                  90
_cell_angle_gamma                 90
loop_
_atom_site_label
_atom_site_type_symbol
_atom_site_fract_x
_atom_site_fract_y
_atom_site_fract_z
_atom_site_U_iso_or_equiv
_atom_site_adp_type
_atom_site_occupancy
H1      H    0.1352279346    0.3028259886   1.0496859127    0    Uiso    1
H2      H    0.2801888452    0.1518504113   1.0491415067    1    Uiso    1
C3      C    0.2183888659    0.3101418645   1.0519282554    2    Uiso    1
H4      H    0.1415137418    0.5034934684   1.0536414586    3    Uiso    1
C5      C    0.2908873744    0.2346173842   1.0517453956    4    Uiso    1
H6      H    0.1439527500    0.7042324192   1.0475651829    5    Uiso    1
C7      C    0.2252543843    0.5017041318   1.0547022199    6    Uiso    1
C8      C    0.2726216320    0.4064662522   1.0548099819    7    Uiso    1
C9      C    0.2267288984    0.6933481987   1.0500536698    8    Uiso    1
C10      C    0.2766892100    0.5947708967   1.0538521720    9    Uiso    1
C11      C    0.3894530365    0.2846286478   1.0548673845    10    Uiso    1
H12      H    0.4806267274    0.1493971293   1.0542127217    11    Uiso    1
C13      C    0.3024391424    0.7656441007   1.0497061170    12    Uiso    1
H14      H    0.2952480818    0.8487861097   1.0467521022    13    Uiso    1
N15      N    0.3774171359    0.3901431081   1.0559413126    14    Uiso    1
C16      C    0.4824696503    0.2331359688   1.0556538770    15    Uiso    1
N17      N    0.3821152648    0.6065335858   1.0551944360    16    Uiso    1
C18      C    0.3987185607    0.7114257654   1.0535625285    17    Uiso    1
H19      H    0.4956225114    0.8425910886   1.0532525371    18    Uiso    1
C20      C    0.4938790288    0.7588458446   1.0547472479    19    Uiso    1
C21      C    0.5777686609    0.2804668292   1.0567042498    20    Uiso    1
H22      H    0.6816596385    0.1429832234   1.0523632065    21    Uiso    1
C23      C    0.6741107176    0.2261292896   1.0547957996    22    Uiso    1
C24      C    0.5869991419    0.7074611909   1.0563352891    23    Uiso    1
N25      N    0.5939004237    0.3851860970   1.0588933587    24    Uiso    1
N26      N    0.5986362609    0.6021436146   1.0585057084    25    Uiso    1
C27      C    0.6992100444    0.3971842767   1.0585331902    26    Uiso    1
C28      C    0.7495434443    0.2986691877   1.0559194668    27    Uiso    1
C29      C    0.6855987882    0.7576044684   1.0548952919    28    Uiso    1
C30      C    0.7033417454    0.5856272314   1.0584808809    29    Uiso    1
H31      H    0.6966272595    0.8403688677   1.0528179581    30    Uiso    1
C32      C    0.7506913632    0.4903297064   1.0593884342    31    Uiso    1
H33      H    0.8323015872    0.2878201862   1.0543436330    32    Uiso    1
C34      C    0.7578422803    0.6819033126   1.0561489986    33    Uiso    1
H35      H    0.8344324563    0.4884958990   1.0591942940    34    Uiso    1
H36      H    0.8409973755    0.6892614003   1.0549794272    35    Uiso    1
Fe37      Fe    0.4864372155    0.4960996381   0.0794358061    36    Uiso    1
N38      N    0.4681068805    0.4971703489   0.2198052486    37    Uiso    1
O39      O    0.4042431412    0.5002915684   0.2908578010    38    Uiso    1
