data_O2
_audit_creation_date              2013-05-06
_audit_creation_method            'Materials Studio'
_symmetry_space_group_name_H-M    'P1'
_symmetry_Int_Tables_number       1
_symmetry_cell_setting            triclinic
loop_
_symmetry_equiv_pos_as_xyz
  x,y,z
_cell_length_a                    9.840000144139096
_cell_length_b                    9.84000014413909600000
_cell_length_c                    11.83250177332582154904
_cell_angle_alpha                 90
_cell_angle_beta                  90
_cell_angle_gamma                 120
loop_
_atom_site_label
_atom_site_type_symbol
_atom_site_fract_x
_atom_site_fract_y
_atom_site_fract_z
_atom_site_U_iso_or_equiv
_atom_site_adp_type
_atom_site_occupancy
C1      C    0.0026169428    0.5001161580   -0.0058911769    0    Uiso    1
C2      C    0.9191039461    0.3327509714   -0.0061593227    1    Uiso    1
C3      C    0.9233168207    0.5855990921   -0.0055205136    2    Uiso    1
C4      C    0.1673925955    0.5859235262   -0.0054312845    3    Uiso    1
C5      C    0.7542236857    0.2469980517   -0.0045135960    4    Uiso    1
C6      C    -0.0017138379    0.2471192401   -0.0069276764    5    Uiso    1
C7      C    0.7586869068    0.4999346784   -0.0046610953    6    Uiso    1
C8      C    0.6750392773    0.3322985472   -0.0022744871    7    Uiso    1
C9      C    0.2467931948    0.5006664710   -0.0050393820    8    Uiso    1
C10      C    0.1630355739    0.3324718228   -0.0070303414    9    Uiso    1
C11      C    0.0064072247    0.7533203861   -0.0050168621    10    Uiso    1
C12      C    0.2518874663    0.7534908043   -0.0036700213    11    Uiso    1
C13      C    0.9151901047    0.0794318456   -0.0058598180    12    Uiso    1
C14      C    0.6697352752    0.0793793885   -0.0031422753    13    Uiso    1
C15      C    0.9192052955    0.8320751436   -0.0055653402    14    Uiso    1
C16      C    0.5037181347    0.0006980795   -0.0025277532    15    Uiso    1
C17      C    0.4178403323    0.8323845468   -0.0032364051    16    Uiso    1
C18      C    0.0021044453    0.0004656961   -0.0061491174    17    Uiso    1
C19      C    0.7483479421    -0.0087616593   -0.0033802838    18    Uiso    1
C20      C    0.1731727280    0.8416226436   -0.0030890548    19    Uiso    1
C21      C    0.7496633936    0.7394318832   -0.0035889273    20    Uiso    1
C22      C    0.4269600698    0.0933358079   0.0007100931    21    Uiso    1
C23      C    0.4944696479    0.7396185540   -0.0012688808    22    Uiso    1
C24      C    0.1717655755    0.0933895850   -0.0044970818    23    Uiso    1
N25      N    0.6742972354    0.5768724528   -0.0042130247    24    Uiso    1
N26      N    0.5137702531    0.2554327248   0.0044344534    25    Uiso    1
C27      C    0.6634535361    0.8214169612   -0.0015451084    26    Uiso    1
N28      N    0.4076196092    0.5779647319   -0.0004924074    27    Uiso    1
C29      C    0.2582166474    0.0113785217   -0.0010491922    28    Uiso    1
N30      N    0.2467942935    0.2553561361   -0.0062248128    29    Uiso    1
Fe31      Fe    0.4613223204    0.4174687414   0.0233823431    30    Uiso    1
O32      O    0.4946894582    0.4615736544   0.1769749107    31    Uiso    1
O33      O    0.3596388194    0.3802329127   0.2293434423    32    Uiso    1
