data_OCHO
_audit_creation_date              2013-05-06
_audit_creation_method            'Materials Studio'
_symmetry_space_group_name_H-M    'P1'
_symmetry_Int_Tables_number       1
_symmetry_cell_setting            triclinic
loop_
_symmetry_equiv_pos_as_xyz
  x,y,z
_cell_length_a                    9.840000144139096
_cell_length_b                    9.84000014413909600000
_cell_length_c                    11.83250177332582154904
_cell_angle_alpha                 90
_cell_angle_beta                  90
_cell_angle_gamma                 120
loop_
_atom_site_label
_atom_site_type_symbol
_atom_site_fract_x
_atom_site_fract_y
_atom_site_fract_z
_atom_site_U_iso_or_equiv
_atom_site_adp_type
_atom_site_occupancy
C1      C    0.0002187755    -0.0029672474   -0.0087885951    0    Uiso    1
C2      C    0.1698588839    0.0895134172   -0.0062406232    1    Uiso    1
C3      C    0.2560079306    0.0069398648   -0.0057191941    2    Uiso    1
C4      C    0.4248481854    0.0894660573   -0.0065534068    3    Uiso    1
C5      C    0.5019948420    -0.0030530280   -0.0088833502    4    Uiso    1
C6      C    0.6681519752    0.0767156521   -0.0093871512    5    Uiso    1
C7      C    0.7469457177    -0.0112815360   -0.0078508225    6    Uiso    1
C8      C    0.9136913371    0.0767088330   -0.0092364649    7    Uiso    1
C9      C    -0.0032954326    0.2441245803   -0.0108636834    8    Uiso    1
C10      C    0.1615029742    0.3294139050   -0.0090134310    9    Uiso    1
N11      N    0.2439368779    0.2501947984   -0.0043005010    10    Uiso    1
N12      N    0.5114065820    0.2499568231   -0.0053200563    11    Uiso    1
C13      C    0.6729006750    0.3293693452   -0.0098181085    12    Uiso    1
C14      C    0.7525155072    0.2441571822   -0.0111803473    13    Uiso    1
C15      C    0.9173127511    0.3295647348   -0.0118297279    14    Uiso    1
C16      C    0.0009066835    0.4967412866   -0.0117952257    15    Uiso    1
C17      C    0.1657185924    0.5820576091   -0.0106641385    16    Uiso    1
C18      C    0.2450803681    0.4966342938   -0.0086055564    17    Uiso    1
N19      N    0.4068430046    0.5757358066   -0.0030465303    18    Uiso    1
N20      N    0.6744041725    0.5761292562   -0.0048963025    19    Uiso    1
C21      C    0.7566360145    0.4968353970   -0.0096751361    20    Uiso    1
C22      C    0.9214907340    0.5821318853   -0.0110482438    21    Uiso    1
C23      C    0.0045387197    0.7494999572   -0.0093301724    22    Uiso    1
C24      C    0.1713627200    0.8375058328   -0.0079964842    23    Uiso    1
C25      C    0.2501112794    0.7494746998   -0.0090869600    24    Uiso    1
C26      C    0.4163121540    0.8290999643   -0.0084992448    25    Uiso    1
C27      C    0.4934671081    0.7366195846   -0.0055303456    26    Uiso    1
C28      C    0.6621170741    0.8192069836   -0.0051997579    27    Uiso    1
C29      C    0.7484149302    0.7366366772   -0.0061910007    28    Uiso    1
C30      C    0.9180821212    0.8292180646   -0.0088193346    29    Uiso    1
Fe31      Fe    0.4592626389    0.4127369930   0.0259253879    30    Uiso    1
O32      O    0.4599681510    0.4095909815   0.1881419228    31    Uiso    1
C33      C    0.4412057355    0.4861438402   0.2724844813    32    Uiso    1
O34      O    0.4943460000    0.4988556804   0.3676324496    33    Uiso    1
H35      H    0.3683583209    0.5403302901   0.2497214351    34    Uiso    1
