data_benNO-Nben
_audit_creation_date              2013-05-06
_audit_creation_method            'Materials Studio'
_symmetry_space_group_name_H-M    'P1'
_symmetry_Int_Tables_number       1
_symmetry_cell_setting            triclinic
loop_
_symmetry_equiv_pos_as_xyz
  x,y,z
_cell_length_a                    9.840000144139096
_cell_length_b                    9.84000014413909600000
_cell_length_c                    14.99999781972419655144
_cell_angle_alpha                 90
_cell_angle_beta                  90
_cell_angle_gamma                 120
loop_
_atom_site_label
_atom_site_type_symbol
_atom_site_fract_x
_atom_site_fract_y
_atom_site_fract_z
_atom_site_U_iso_or_equiv
_atom_site_adp_type
_atom_site_occupancy
N1      N    0.3629708640    0.5640590523   -0.0217470311    0    Uiso    1
C2      C    0.2008302531    0.4859779557   -0.0247436756    1    Uiso    1
C3      C    0.1173580812    0.3189393534   -0.0250003924    2    Uiso    1
C4      C    0.4499506725    0.7256848582   -0.0230065106    3    Uiso    1
C5      C    0.3732267158    0.8183546351   -0.0243832319    4    Uiso    1
C6      C    0.1224272417    0.5717544899   -0.0259329239    5    Uiso    1
C7      C    -0.0468274981    0.2331423670   -0.0262437241    6    Uiso    1
N8      N    0.2014246975    0.2408647318   -0.0224327199    7    Uiso    1
C9      C    0.2071253722    0.7393906910   -0.0246795728    8    Uiso    1
C10      C    -0.0427444735    -0.0135924522   -0.0249390009    9    Uiso    1
C11      C    0.8701537532    0.0654321108   -0.0254173752    10    Uiso    1
C12      C    0.1267158700    0.0791563158   -0.0231177497    11    Uiso    1
C13      C    0.4587771427    -0.0135797259   -0.0243288132    12    Uiso    1
C14      C    0.8741501050    0.3187037392   -0.0268777554    13    Uiso    1
C15      C    -0.0421660300    0.4861111541   -0.0267654035    14    Uiso    1
C16      C    0.7034832619    -0.0225939119   -0.0247002721    15    Uiso    1
C17      C    0.8747058640    0.8183066429   -0.0248622572    16    Uiso    1
C18      C    0.6187138369    0.8077235261   -0.0230966161    17    Uiso    1
C19      C    0.6248782316    0.0654435620   -0.0249683007    18    Uiso    1
C20      C    0.1284798465    0.8273758957   -0.0238867253    19    Uiso    1
C21      C    -0.0381448994    0.7393237380   -0.0248195205    20    Uiso    1
C22      C    0.7095427440    0.2330763055   -0.0260520834    21    Uiso    1
C23      C    0.2133222749    -0.0029854486   -0.0222714033    22    Uiso    1
C24      C    0.7053184663    0.7257174088   -0.0232590218    23    Uiso    1
C25      C    0.8788163927    0.5716815588   -0.0259477253    24    Uiso    1
C26      C    0.3820061257    0.0790500445   -0.0224444551    25    Uiso    1
C27      C    0.6311086805    0.3188629207   -0.0245389015    26    Uiso    1
C28      C    0.7146343978    0.4858779767   -0.0245182099    27    Uiso    1
N29      N    0.6306142148    0.5640239158   -0.0207860973    28    Uiso    1
N30      N    0.4690061931    0.2407792808   -0.0209381277    29    Uiso    1
Fe31      Fe    0.4159046589    0.4026375297   -0.0091215166    30    Uiso    1
O32      O    0.3890927972    0.3690063197   0.1359670505    31    Uiso    1
N33      N    0.4730757809    0.4606760643   0.1999244976    32    Uiso    1
H34      H    0.7485758350    0.8827992112   0.1446081631    33    Uiso    1
H35      H    0.6977245655    0.4136189025   0.2688019248    34    Uiso    1
N36      N    0.5569380296    0.6086229629   0.1866541063    35    Uiso    1
C37      C    0.5875076040    0.3537374900   0.3054402691    36    Uiso    1
C38      C    0.7397311307    0.8705924792   0.2167861417    37    Uiso    1
C39      C    0.4608805910    0.3706489656   0.2796673331    38    Uiso    1
H40      H    0.9012038622    1.1137940531   0.2418824812    39    Uiso    1
C41      C    0.6380502547    0.7202860493   0.2525144647    40    Uiso    1
C42      C    0.8238998693    0.9994106431   0.2717338181    41    Uiso    1
H43      H    0.6644565495    0.2381513521   0.3974582454    42    Uiso    1
C44      C    0.5680285420    0.2560074655   0.3774225752    43    Uiso    1
C45      C    0.3170379838    0.2935550613   0.3235252474    44    Uiso    1
H46      H    0.2198669255    0.3069878147   0.2998379658    45    Uiso    1
C47      C    0.6229301522    0.7042898576   0.3461475818    46    Uiso    1
C48      C    0.8076812752    0.9824431514   0.3641910472    47    Uiso    1
C49      C    0.4251469503    0.1785264680   0.4226783321    48    Uiso    1
H50      H    0.5445718675    0.5918916211   0.3769475538    49    Uiso    1
C51      C    0.2999712396    0.1978380972   0.3958460638    50    Uiso    1
C52      C    0.7070356136    0.8347707158   0.4004624154    51    Uiso    1
H53      H    0.8717413139    1.0835535621   0.4078774442    52    Uiso    1
H54      H    0.4106356658    0.1014930331   0.4784829595    53    Uiso    1
H55      H    0.1875800992    0.1361885349   0.4303710225    54    Uiso    1
H56      H    0.6927824442    0.8205899026   0.4725584098    55    Uiso    1
