data_C
_audit_creation_date              2013-05-06
_audit_creation_method            'Materials Studio'
_symmetry_space_group_name_H-M    'P1'
_symmetry_Int_Tables_number       1
_symmetry_cell_setting            triclinic
loop_
_symmetry_equiv_pos_as_xyz
  x,y,z
_cell_length_a                    9.840000144139096
_cell_length_b                    9.84000014413909600000
_cell_length_c                    11.83250177332582154904
_cell_angle_alpha                 90
_cell_angle_beta                  90
_cell_angle_gamma                 120
loop_
_atom_site_label
_atom_site_type_symbol
_atom_site_fract_x
_atom_site_fract_y
_atom_site_fract_z
_atom_site_U_iso_or_equiv
_atom_site_adp_type
_atom_site_occupancy
C1      C    -0.0005883887    -0.0000187292   -0.0053269894    0    Uiso    1
C2      C    0.1687182568    0.0924147242   -0.0023491705    1    Uiso    1
C3      C    0.2554341906    0.0108611995   -0.0018105055    2    Uiso    1
C4      C    0.4237042091    0.0924096432   -0.0024058280    3    Uiso    1
C5      C    0.5005735403    -0.0000264730   -0.0053693118    4    Uiso    1
C6      C    0.6660461599    0.0780554005   -0.0073150021    5    Uiso    1
C7      C    0.7450169759    -0.0099737809   -0.0053323079    6    Uiso    1
C8      C    0.9120187452    0.0780609459   -0.0072194160    7    Uiso    1
C9      C    -0.0047895729    0.2463433916   -0.0108803077    8    Uiso    1
C10      C    0.1597626191    0.3307246718   -0.0077914011    9    Uiso    1
N11      N    0.2434195590    0.2546479507   -0.0004300957    10    Uiso    1
N12      N    0.5112369906    0.2546481955   -0.0005767120    11    Uiso    1
C13      C    0.6709646964    0.3307205144   -0.0080427489    12    Uiso    1
C14      C    0.7511398050    0.2463378906   -0.0110557940    13    Uiso    1
C15      C    0.9159244234    0.3318365476   -0.0131399837    14    Uiso    1
C16      C    -0.0006187410    0.4987550367   -0.0129608601    15    Uiso    1
C17      C    0.1641691489    0.5843104681   -0.0106167632    16    Uiso    1
C18      C    0.2443654656    0.5000069982   -0.0076650273    17    Uiso    1
N19      N    0.4041215650    0.5761912575   -0.0002824462    18    Uiso    1
N20      N    0.6720653749    0.5761843305   -0.0004780621    19    Uiso    1
C21      C    0.7556396538    0.5000057163   -0.0079422296    20    Uiso    1
C22      C    0.9201448959    0.5843127384   -0.0108177286    21    Uiso    1
C23      C    0.0033425312    0.7525953431   -0.0072626770    22    Uiso    1
C24      C    0.1703400914    0.8406800628   -0.0055800052    23    Uiso    1
C25      C    0.2492512068    0.7525921709   -0.0071310309    24    Uiso    1
C26      C    0.4147412700    0.8307320917   -0.0051478552    25    Uiso    1
C27      C    0.4916575086    0.7383707948   -0.0019330518    26    Uiso    1
C28      C    0.6599407355    0.8198739380   -0.0012655298    27    Uiso    1
C29      C    0.7467196536    0.7383721882   -0.0020346276    28    Uiso    1
C30      C    0.9159972100    0.8307388230   -0.0052422330    29    Uiso    1
Fe31      Fe    0.4578106592    0.4155818578   0.0338017312    30    Uiso    1
C32      C    0.4583117430    0.4166293149   0.1645592080    31    Uiso    1
