data_C2H5OH
_audit_creation_date              2013-05-06
_audit_creation_method            'Materials Studio'
_symmetry_space_group_name_H-M    'P1'
_symmetry_Int_Tables_number       1
_symmetry_cell_setting            triclinic
loop_
_symmetry_equiv_pos_as_xyz
  x,y,z
_cell_length_a                    13.000000078569062
_cell_length_b                    13.00000007856906200000
_cell_length_c                    12.00000107252529404377
_cell_angle_alpha                 90
_cell_angle_beta                  90
_cell_angle_gamma                 90
loop_
_atom_site_label
_atom_site_type_symbol
_atom_site_fract_x
_atom_site_fract_y
_atom_site_fract_z
_atom_site_U_iso_or_equiv
_atom_site_adp_type
_atom_site_occupancy
H1      H    0.1355899222    0.3048652746   1.0487540297    0    Uiso    1
H2      H    0.2806985882    0.1538327480   1.0503530098    1    Uiso    1
C3      C    0.2187369756    0.3120589629   1.0522708234    2    Uiso    1
H4      H    0.1415411986    0.5050046795   1.0507793787    3    Uiso    1
C5      C    0.2912237856    0.2366500722   1.0529567902    4    Uiso    1
H6      H    0.1439998458    0.7047130895   1.0444848061    5    Uiso    1
C7      C    0.2252852994    0.5032285095   1.0532005940    6    Uiso    1
C8      C    0.2730309949    0.4084162591   1.0549816361    7    Uiso    1
C9      C    0.2268145127    0.6942664185   1.0470266413    8    Uiso    1
C10      C    0.2770697129    0.5959092579   1.0515797958    9    Uiso    1
C11      C    0.3896699674    0.2870371057   1.0558857538    10    Uiso    1
H12      H    0.4808106284    0.1517262408   1.0542792492    11    Uiso    1
C13      C    0.3022650267    0.7667120791   1.0452554906    12    Uiso    1
H14      H    0.2951202319    0.8498025101   1.0407840126    13    Uiso    1
N15      N    0.3782017626    0.3927133836   1.0574444328    14    Uiso    1
C16      C    0.4824665291    0.2354760667   1.0549147304    15    Uiso    1
N17      N    0.3828350305    0.6073597967   1.0524472675    16    Uiso    1
C18      C    0.3985871496    0.7125528042   1.0485350795    17    Uiso    1
H19      H    0.4944481038    0.8444936673   1.0445180911    18    Uiso    1
C20      C    0.4932223666    0.7607617318   1.0466240685    19    Uiso    1
C21      C    0.5772008082    0.2834117474   1.0525926741    20    Uiso    1
H22      H    0.6808540252    0.1459400649   1.0523365063    21    Uiso    1
C23      C    0.6735806901    0.2291404072   1.0517129188    22    Uiso    1
C24      C    0.5862671323    0.7095054344   1.0456889581    23    Uiso    1
N25      N    0.5928431198    0.3884137887   1.0505176820    24    Uiso    1
N26      N    0.5977374167    0.6036599832   1.0478922812    25    Uiso    1
C27      C    0.6984368557    0.4000437758   1.0493831560    26    Uiso    1
C28      C    0.7489371709    0.3016242792   1.0498303908    27    Uiso    1
C29      C    0.6847444163    0.7595976944   1.0428077216    28    Uiso    1
C30      C    0.7029481673    0.5877451831   1.0464881019    29    Uiso    1
H31      H    0.6955091572    0.8423691688   1.0403880522    30    Uiso    1
C32      C    0.7503107316    0.4926831867   1.0480940663    31    Uiso    1
H33      H    0.8317890064    0.2911982545   1.0484695223    32    Uiso    1
C34      C    0.7571539465    0.6839643990   1.0434272510    33    Uiso    1
H35      H    0.8340550012    0.4906681100   1.0477557191    34    Uiso    1
H36      H    0.8403343831    0.6911090798   1.0418842680    35    Uiso    1
Fe37      Fe    0.4880005693    0.4977966330   0.0579531287    36    Uiso    1
H38      H    0.5597385395    0.5694115298   0.2442313756    37    Uiso    1
O39      O    0.5187436592    0.5063192310   0.2431409238    38    Uiso    1
C40      C    0.4439579153    0.5094117224   0.3320484425    39    Uiso    1
H41      H    0.3984762133    0.4390250660   0.3212661500    40    Uiso    1
H42      H    0.3920535047    0.5756090326   0.3201321225    41    Uiso    1
H43      H    0.5492688708    0.4473423889   0.4545593824    42    Uiso    1
H44      H    0.5397583388    0.5839312846   0.4565833421    43    Uiso    1
C45      C    0.4959731364    0.5122875547   0.4452552976    44    Uiso    1
H46      H    0.4386795916    0.5079903421   0.5124648843    45    Uiso    1
