data_C5H8O2
_audit_creation_date              2013-05-06
_audit_creation_method            'Materials Studio'
_symmetry_space_group_name_H-M    'P1'
_symmetry_Int_Tables_number       1
_symmetry_cell_setting            triclinic
loop_
_symmetry_equiv_pos_as_xyz
  x,y,z
_cell_length_a                    9.840000144139096
_cell_length_b                    9.84000014413909600000
_cell_length_c                    11.83250177332582154904
_cell_angle_alpha                 90
_cell_angle_beta                  90
_cell_angle_gamma                 120
loop_
_atom_site_label
_atom_site_type_symbol
_atom_site_fract_x
_atom_site_fract_y
_atom_site_fract_z
_atom_site_U_iso_or_equiv
_atom_site_adp_type
_atom_site_occupancy
Fe1      Fe    0.4573477477    0.4159687164   -0.0233776420    0    Uiso    1
H2      H    0.3680874280    0.6666353478   0.1706246053    1    Uiso    1
O3      O    0.3990888089    0.4083416637   0.2044327551    2    Uiso    1
O4      O    0.3400746254    0.1565930954   0.2281423248    3    Uiso    1
C5      C    0.3745035602    0.6339287623   0.2579594466    4    Uiso    1
H6      H    0.5894620910    0.6296996681   0.2296812384    5    Uiso    1
C7      C    0.3993223888    0.2888265597   0.2646709693    6    Uiso    1
C8      C    0.4733938289    0.5565362150   0.2686108931    7    Uiso    1
H9      H    0.2548384755    0.5546121826   0.2883512327    8    Uiso    1
H10      H    0.4260747378    0.7411934419   0.3093922106    9    Uiso    1
C11      C    0.4843609199    0.3532598273   0.3757350163    10    Uiso    1
C12      C    0.4883169290    0.5092360882   0.3898588197    11    Uiso    1
H13      H    0.6023104220    0.3677786225   0.3668401052    12    Uiso    1
H14      H    0.4249328578    0.2685416659   0.4439115862    13    Uiso    1
H15      H    0.5951024798    0.5999948243   0.4309703136    14    Uiso    1
H16      H    0.3875411509    0.4932406692   0.4402273891    15    Uiso    1
C17      C    -0.0001494830    0.5001589929   0.9644477842    16    Uiso    1
C18      C    0.9161337431    0.3327549796   0.9644672188    17    Uiso    1
C19      C    0.1645083530    0.5857393141   0.9639215493    18    Uiso    1
C20      C    0.9207938248    0.5857717057   0.9658441016    19    Uiso    1
C21      C    0.9951732699    0.2471250628   0.9645745689    20    Uiso    1
C22      C    0.7514745470    0.2471698759   0.9651314868    21    Uiso    1
C23      C    0.2428022535    0.4997801597   0.9640407925    22    Uiso    1
C24      C    0.1594068527    0.3328139276   0.9644496991    23    Uiso    1
C25      C    0.7565373622    0.4997688589   0.9676208940    24    Uiso    1
C26      C    0.6730209637    0.3329517752   0.9667232080    25    Uiso    1
C27      C    0.9121513157    0.0794432134   0.9657864565    26    Uiso    1
C28      C    0.0039104153    0.7534921567   0.9662178174    27    Uiso    1
C29      C    0.2491455924    0.7535129489   0.9644600038    28    Uiso    1
C30      C    0.6668360411    0.0794820392   0.9654219966    29    Uiso    1
C31      C    0.4152315367    0.8324285536   0.9643220159    30    Uiso    1
C32      C    0.9166827665    0.8323020883   0.9668200780    31    Uiso    1
C33      C    -0.0006115634    0.0005944735   0.9659301728    32    Uiso    1
C34      C    0.5007385973    0.0007174282   0.9650193931    33    Uiso    1
C35      C    0.7455373455    0.9915820571   0.9663894113    34    Uiso    1
C36      C    0.1705634008    0.8415937011   0.9655575393    35    Uiso    1
C37      C    0.4920297129    0.7396744658   0.9656273531    36    Uiso    1
C38      C    0.7471939830    0.7396179022   0.9687268491    37    Uiso    1
C39      C    0.1688494437    0.0932800710   0.9661592667    38    Uiso    1
C40      C    0.4238651739    0.0932692913   0.9666274207    39    Uiso    1
C41      C    0.6606651340    0.8216971781   0.9676697331    40    Uiso    1
C42      C    0.2554112113    0.0112675420   0.9662985466    41    Uiso    1
N43      N    0.4051755773    0.5773126424   0.9656058414    42    Uiso    1
N44      N    0.2440557867    0.2553515404   0.9656374581    43    Uiso    1
N45      N    0.6714784791    0.5771613726   0.9707734145    44    Uiso    1
N46      N    0.5106599118    0.2555873316   0.9686066653    45    Uiso    1
