data_C5H9O3
_audit_creation_date              2013-05-06
_audit_creation_method            'Materials Studio'
_symmetry_space_group_name_H-M    'P1'
_symmetry_Int_Tables_number       1
_symmetry_cell_setting            triclinic
loop_
_symmetry_equiv_pos_as_xyz
  x,y,z
_cell_length_a                    9.840000144139096
_cell_length_b                    9.84000014413909600000
_cell_length_c                    11.83250177332582154904
_cell_angle_alpha                 90
_cell_angle_beta                  90
_cell_angle_gamma                 120
loop_
_atom_site_label
_atom_site_type_symbol
_atom_site_fract_x
_atom_site_fract_y
_atom_site_fract_z
_atom_site_U_iso_or_equiv
_atom_site_adp_type
_atom_site_occupancy
Fe1      Fe    0.4360242880    0.3981310039   0.0176954828    0    Uiso    1
O2      O    0.4358744192    0.4069839791   0.1765842404    1    Uiso    1
H3      H    0.0182191527    -0.1646148890   0.2043134210    2    Uiso    1
H4      H    0.3058192567    0.0624976502   0.2315849111    3    Uiso    1
H5      H    0.1736112220    0.1308714779   0.2234267110    4    Uiso    1
C6      C    0.2427688504    0.1056602625   0.2845329821    5    Uiso    1
C7      C    0.4915567305    0.3706626728   0.2707903691    6    Uiso    1
C8      C    0.0112748857    -0.1773574859   0.2964462834    7    Uiso    1
H9      H    0.0302234219    -0.2746103831   0.3201252587    8    Uiso    1
H10      H    -0.1073185208    -0.2093293864   0.3246548246    9    Uiso    1
O11      O    0.5893106700    0.3057010814   0.2350581159    10    Uiso    1
C12      C    0.3580876901    0.2534360202   0.3474495503    11    Uiso    1
H13      H    0.5674490155    0.4795350356   0.3195930815    12    Uiso    1
C14      C    0.1297627559    -0.0296158992   0.3577540619    13    Uiso    1
H15      H    0.4084947807    0.2233726332   0.4197429206    14    Uiso    1
H16      H    0.6474091774    0.3028892119   0.3010844313    15    Uiso    1
H17      H    0.2976796978    0.3122223461   0.3830434588    16    Uiso    1
O18      O    0.1322140558    -0.0234073744   0.4612458027    17    Uiso    1
C19      C    -0.0221410142    0.4816831392   0.9748150387    18    Uiso    1
C20      C    0.8941415860    0.3144911001   0.9750241912    19    Uiso    1
C21      C    0.1427218147    0.5670427165   0.9760025484    20    Uiso    1
C22      C    0.8983276067    0.5670097976   0.9754788529    21    Uiso    1
C23      C    0.9736791571    0.2291356972   0.9759963435    22    Uiso    1
C24      C    0.7292767451    0.2292595101   0.9760560404    23    Uiso    1
C25      C    0.2224099091    0.4817881911   0.9779668041    24    Uiso    1
C26      C    0.1386211905    0.3143608515   0.9778563714    25    Uiso    1
C27      C    0.7335485461    0.4818044110   0.9777754518    26    Uiso    1
C28      C    0.6497255020    0.3145058520   0.9776731131    27    Uiso    1
C29      C    0.8905912289    0.0617307596   0.9780865593    28    Uiso    1
C30      C    -0.0185062890    0.7344354467   0.9771710985    29    Uiso    1
C31      C    0.2271023132    0.7344974606   0.9779827240    30    Uiso    1
C32      C    0.6450819363    0.0618881722   0.9786732551    31    Uiso    1
C33      C    0.3933049489    0.8143328197   0.9792794244    32    Uiso    1
C34      C    0.8949965315    0.8141637707   0.9781619400    33    Uiso    1
C35      C    -0.0228887691    -0.0180060241   0.9780963079    34    Uiso    1
C36      C    0.4789192845    -0.0177638400   0.9793538414    35    Uiso    1
C37      C    0.7237908648    0.9737177719   0.9802396107    36    Uiso    1
C38      C    0.1483379490    0.8225625998   0.9788993547    37    Uiso    1
C39      C    0.4702943743    0.7216001698   0.9823914063    38    Uiso    1
C40      C    0.7253636613    0.7214904908   0.9823117837    39    Uiso    1
C41      C    0.1467784143    0.0746280955   0.9810639891    40    Uiso    1
C42      C    0.4019734561    0.0749862836   0.9818395184    41    Uiso    1
C43      C    0.6391442135    0.8042488839   0.9834093166    42    Uiso    1
C44      C    0.2330860322    -0.0079564222   0.9820058360    43    Uiso    1
N45      N    0.3838322834    0.5610921455   0.9835733251    44    Uiso    1
N46      N    0.2208037499    0.2350394164   0.9840176838    45    Uiso    1
N47      N    0.6515675631    0.5611368304   0.9848377857    46    Uiso    1
N48      N    0.4883836601    0.2355059460   0.9836945768    47    Uiso    1
