data_C6H5SO2CH3
_audit_creation_date              2013-05-06
_audit_creation_method            'Materials Studio'
_symmetry_space_group_name_H-M    'P1'
_symmetry_Int_Tables_number       1
_symmetry_cell_setting            triclinic
loop_
_symmetry_equiv_pos_as_xyz
  x,y,z
_cell_length_a                    9.840000144139096
_cell_length_b                    9.84000014413909600000
_cell_length_c                    11.83250177332582154904
_cell_angle_alpha                 90
_cell_angle_beta                  90
_cell_angle_gamma                 120
loop_
_atom_site_label
_atom_site_type_symbol
_atom_site_fract_x
_atom_site_fract_y
_atom_site_fract_z
_atom_site_U_iso_or_equiv
_atom_site_adp_type
_atom_site_occupancy
C1      C    0.0080231784    0.5019593448   -0.0233226146    0    Uiso    1
C2      C    0.9243820584    0.3345941886   -0.0233128875    1    Uiso    1
C3      C    0.9292116371    0.5876559242   -0.0217703477    2    Uiso    1
C4      C    0.1725056228    0.5875619495   -0.0206454046    3    Uiso    1
C5      C    0.7598655216    0.2489014321   -0.0225165335    4    Uiso    1
C6      C    0.0031391527    0.2488828606   -0.0202257387    5    Uiso    1
C7      C    0.7651004497    0.5017950675   -0.0211903479    6    Uiso    1
C8      C    0.6817410953    0.3349314774   -0.0220945600    7    Uiso    1
C9      C    0.2505310254    0.5016546079   -0.0175908639    8    Uiso    1
C10      C    0.1671151611    0.3348798970   -0.0172411505    9    Uiso    1
C11      C    0.0119960928    0.7552484552   -0.0182223814    10    Uiso    1
C12      C    0.2571158420    0.7551501870   -0.0181437115    11    Uiso    1
C13      C    0.6750332845    0.0811925018   -0.0191023466    12    Uiso    1
C14      C    0.9201798170    0.0812907525   -0.0175261118    13    Uiso    1
C15      C    0.9248122039    0.8341845617   -0.0166853823    14    Uiso    1
C16      C    0.5089084190    0.0021956112   -0.0179309698    15    Uiso    1
C17      C    0.4231956624    0.8340092342   -0.0167491877    16    Uiso    1
C18      C    0.0072595959    0.0023231341   -0.0158410726    17    Uiso    1
C19      C    0.7535618821    -0.0068223425   -0.0169018794    18    Uiso    1
C20      C    0.1785207292    0.8431376995   -0.0168538481    19    Uiso    1
C21      C    0.7554081129    0.7415356486   -0.0157798524    20    Uiso    1
C22      C    0.4320408092    0.0947775170   -0.0171587919    21    Uiso    1
C23      C    0.5000015461    0.7414032328   -0.0145095633    22    Uiso    1
C24      C    0.1766880482    0.0950259525   -0.0139480711    23    Uiso    1
N25      N    0.6805437871    0.5796103140   -0.0167535647    24    Uiso    1
N26      N    0.5191524914    0.2569562265   -0.0178370027    25    Uiso    1
C27      C    0.6687001146    0.8234445530   -0.0144631723    26    Uiso    1
N28      N    0.4128386166    0.5793740545   -0.0128146019    27    Uiso    1
C29      C    0.2634348206    0.0129696224   -0.0145742052    28    Uiso    1
N30      N    0.2516520540    0.2570948459   -0.0121676888    29    Uiso    1
Fe31      Fe    0.4664503075    0.4183576742   -0.0044037666    30    Uiso    1
H32      H    0.6622754069    0.2887421660   0.2058569517    31    Uiso    1
S33      S    0.5134301288    0.4151346611   0.2214220867    32    Uiso    1
H34      H    0.0556909551    0.1445475315   0.2855674421    33    Uiso    1
C35      C    0.2444777259    0.3835158482   0.2912893184    34    Uiso    1
C36      C    0.5545145552    0.2597186499   0.2519514904    35    Uiso    1
C37      C    0.0873013104    0.2675150530   0.2834183275    36    Uiso    1
O38      O    0.6428978634    0.5598908458   0.2721169296    37    Uiso    1
H39      H    0.4136626322    0.6309192380   0.2948958407    38    Uiso    1
C40      C    0.2901882396    0.5423595644   0.2872883043    39    Uiso    1
H41      H    0.4567060604    0.1482381874   0.2222654385    40    Uiso    1
H42      H    0.5716668269    0.2601123386   0.3433986410    41    Uiso    1
C43      C    -0.0261500410    0.3119242570   0.2732976453    42    Uiso    1
H44      H    -0.1493303970    0.2210378492   0.2678756704    43    Uiso    1
O45      O    0.3532054563    0.3329501136   0.3074663428    44    Uiso    1
C46      C    0.1751369621    0.5844117463   0.2749680857    45    Uiso    1
C47      C    0.0169041049    0.4700790542   0.2687218185    46    Uiso    1
H48      H    0.2099630373    0.7082363152   0.2710887949    47    Uiso    1
H49      H    -0.0717199671    0.5049403950   0.2600984925    48    Uiso    1
