data_C6H5SOCH3
_audit_creation_date              2013-05-06
_audit_creation_method            'Materials Studio'
_symmetry_space_group_name_H-M    'P1'
_symmetry_Int_Tables_number       1
_symmetry_cell_setting            triclinic
loop_
_symmetry_equiv_pos_as_xyz
  x,y,z
_cell_length_a                    9.840000144139096
_cell_length_b                    9.84000014413909600000
_cell_length_c                    11.83250177332582154904
_cell_angle_alpha                 90
_cell_angle_beta                  90
_cell_angle_gamma                 120
loop_
_atom_site_label
_atom_site_type_symbol
_atom_site_fract_x
_atom_site_fract_y
_atom_site_fract_z
_atom_site_U_iso_or_equiv
_atom_site_adp_type
_atom_site_occupancy
C1      C    0.0196372218    0.5077724612   0.0063368166    0    Uiso    1
C2      C    0.9359515121    0.3402141336   0.0063174607    1    Uiso    1
C3      C    0.9406019253    0.5935001097   0.0069299891    2    Uiso    1
C4      C    0.1843771444    0.5935177294   0.0077517235    3    Uiso    1
C5      C    0.7711749515    0.2546143494   0.0073123423    4    Uiso    1
C6      C    0.0150205128    0.2545450609   0.0075313655    5    Uiso    1
C7      C    0.7761718701    0.5082973002   0.0075959553    6    Uiso    1
C8      C    0.6921147816    0.3400268952   0.0081893207    7    Uiso    1
C9      C    0.2635210727    0.5082696105   0.0091409227    8    Uiso    1
C10      C    0.1795600895    0.3399581012   0.0091174223    9    Uiso    1
C11      C    0.0236409906    0.7612072205   0.0092059495    10    Uiso    1
C12      C    0.2688777487    0.7612111798   0.0099452470    11    Uiso    1
C13      C    0.6866272815    0.0868625597   0.0097862613    12    Uiso    1
C14      C    0.9317783621    0.0868732988   0.0096208382    13    Uiso    1
C15      C    0.9362338618    0.8397442143   0.0094734649    14    Uiso    1
C16      C    0.5206468098    0.0083763524   0.0099810624    15    Uiso    1
C17      C    0.4348752850    0.8398327655   0.0103049250    16    Uiso    1
C18      C    0.0191156696    0.0082933163   0.0099382450    17    Uiso    1
C19      C    0.7650552081    -0.0014704388   0.0113806499    18    Uiso    1
C20      C    0.1903544105    0.8494202206   0.0112999478    19    Uiso    1
C21      C    0.7668553813    0.7468257305   0.0118885759    20    Uiso    1
C22      C    0.4441059617    0.1012696376   0.0126770143    21    Uiso    1
C23      C    0.5114557141    0.7470695617   0.0131411181    22    Uiso    1
C24      C    0.1885356318    0.1012983495   0.0130927988    23    Uiso    1
N25      N    0.6915255225    0.5844787438   0.0123184999    24    Uiso    1
N26      N    0.5309949911    0.2639957209   0.0144949135    25    Uiso    1
C27      C    0.6800955149    0.8287353121   0.0137361669    26    Uiso    1
N28      N    0.4244121187    0.5844812243   0.0150038558    27    Uiso    1
C29      C    0.2753316070    0.0193190752   0.0140388671    28    Uiso    1
N30      N    0.2643950603    0.2639330127   0.0152262722    29    Uiso    1
Fe31      Fe    0.4783901671    0.4242934412   0.0379567981    30    Uiso    1
H32      H    0.6586360564    0.3404611868   0.2515981699    31    Uiso    1
S33      S    0.4948464411    0.4444574267   0.2118409010    32    Uiso    1
H34      H    0.2033101644    0.1360055433   0.2648641784    33    Uiso    1
C35      C    0.5381887970    0.3037973551   0.2774796748    34    Uiso    1
O36      O    0.6075869407    0.5994464003   0.2627369707    35    Uiso    1
H37      H    0.4579032031    0.1851756694   0.2465094960    36    Uiso    1
H38      H    0.5300967140    0.3123368676   0.3691434610    37    Uiso    1
C39      C    0.1855779134    0.2335263723   0.2870856475    38    Uiso    1
C40      C    0.3052997115    0.3889425086   0.2738235566    39    Uiso    1
H41      H    -0.0519481151    0.0813502830   0.3423177749    40    Uiso    1
C42      C    0.0409702587    0.2026418180   0.3302133311    41    Uiso    1
C43      C    0.2804130907    0.5125573835   0.3014595091    42    Uiso    1
H44      H    0.3763367113    0.6324004469   0.2905321421    43    Uiso    1
C45      C    0.0152426391    0.3258325485   0.3580483105    44    Uiso    1
C46      C    0.1350732757    0.4805304361   0.3434130123    45    Uiso    1
H47      H    -0.0977493730    0.3010849846   0.3920552557    46    Uiso    1
H48      H    0.1160211910    0.5773065191   0.3649938179    47    Uiso    1
