data_C6H5SO2HCH3
_audit_creation_date              2013-05-06
_audit_creation_method            'Materials Studio'
_symmetry_space_group_name_H-M    'P1'
_symmetry_Int_Tables_number       1
_symmetry_cell_setting            triclinic
loop_
_symmetry_equiv_pos_as_xyz
  x,y,z
_cell_length_a                    9.840000144139096
_cell_length_b                    9.84000014413909600000
_cell_length_c                    11.83250177332582154904
_cell_angle_alpha                 90
_cell_angle_beta                  90
_cell_angle_gamma                 120
loop_
_atom_site_label
_atom_site_type_symbol
_atom_site_fract_x
_atom_site_fract_y
_atom_site_fract_z
_atom_site_U_iso_or_equiv
_atom_site_adp_type
_atom_site_occupancy
C1      C    0.0159538299    0.4310093871   -0.0440823006    0    Uiso    1
C2      C    0.9323777884    0.2636764970   -0.0437048668    1    Uiso    1
C3      C    0.7675427615    0.1777542591   -0.0432265210    2    Uiso    1
C4      C    0.6887844042    0.2633807660   -0.0422662692    3    Uiso    1
C5      C    0.9368528292    0.5166832206   -0.0436222842    4    Uiso    1
C6      C    0.7723153742    0.4308319096   -0.0425560828    5    Uiso    1
C7      C    0.1807656592    0.5168257374   -0.0423096122    6    Uiso    1
C8      C    0.0114515836    0.1780004832   -0.0416068778    7    Uiso    1
C9      C    0.6829612844    0.0100695751   -0.0402445312    8    Uiso    1
C10      C    0.0198032930    0.6843508481   -0.0413634418    9    Uiso    1
C11      C    0.2652527646    0.6844709362   -0.0408765469    10    Uiso    1
C12      C    0.5170112806    -0.0685191680   -0.0395730269    11    Uiso    1
N13      N    0.5273691982    0.1870546725   -0.0344439862    12    Uiso    1
C14      C    0.2596009187    0.4313533671   -0.0394012340    13    Uiso    1
C15      C    0.9283505009    0.0102146415   -0.0395452656    14    Uiso    1
C16      C    0.1758727420    0.2638221591   -0.0397543195    15    Uiso    1
C17      C    0.4403645343    0.0242834155   -0.0366055945    16    Uiso    1
C18      C    0.7615696578    -0.0780509906   -0.0380876074    17    Uiso    1
C19      C    0.1865851233    0.7725469101   -0.0399694921    18    Uiso    1
C20      C    0.4311404329    0.7628995110   -0.0393408324    19    Uiso    1
N21      N    0.6871589122    0.5071511941   -0.0365282319    20    Uiso    1
C22      C    0.9325086959    0.7629258054   -0.0393477838    21    Uiso    1
C23      C    0.0155265651    -0.0684667614   -0.0388986830    22    Uiso    1
C24      C    0.7629217033    0.6702997586   -0.0362066579    23    Uiso    1
C25      C    0.2715857538    -0.0575082220   -0.0362539033    24    Uiso    1
C26      C    0.5076839078    0.6699827488   -0.0353058883    25    Uiso    1
C27      C    0.6765330663    0.7520381675   -0.0346616596    26    Uiso    1
C28      C    0.1851091384    0.0243918037   -0.0367261845    27    Uiso    1
N29      N    0.4209869841    0.5076554925   -0.0330508623    28    Uiso    1
N30      N    0.2606819357    0.1872476170   -0.0357553109    29    Uiso    1
Fe31      Fe    0.4746102391    0.3474649115   -0.0133826910    30    Uiso    1
H32      H    0.7581369635    0.4455745648   0.1837265870    31    Uiso    1
S33      S    0.4759024154    0.3470973579   0.1759883280    32    Uiso    1
H34      H    0.6414387037    0.2343374992   0.1916517672    33    Uiso    1
C35      C    0.6521472803    0.3458299282   0.2189067968    34    Uiso    1
H36      H    -0.0499265019    0.7291354429   0.3242171871    35    Uiso    1
H37      H    -0.0977157880    0.5564612691   0.4910545116    36    Uiso    1
C38      C    0.0185350465    0.6710044763   0.3360463221    37    Uiso    1
H39      H    0.1574982889    0.7693640930   0.1859458375    38    Uiso    1
O40      O    0.4934642088    0.4987719887   0.2267794900    39    Uiso    1
C41      C    -0.0079005468    0.5740838139   0.4294685892    40    Uiso    1
C42      C    0.1346422432    0.6929051604   0.2586201713    41    Uiso    1
C43      C    0.0797671495    0.5002656066   0.4454419698    42    Uiso    1
H44      H    0.0606499424    0.4253436588   0.5184973583    43    Uiso    1
C45      C    0.2231527343    0.6193493085   0.2730777829    44    Uiso    1
C46      C    0.1965205095    0.5224891828   0.3673671913    45    Uiso    1
H47      H    0.3145341077    0.6371686702   0.2128639665    46    Uiso    1
O48      O    0.2797690745    0.4493394248   0.3874135182    47    Uiso    1
H49      H    0.3594542073    0.4730879209   0.3264949338    48    Uiso    1
H50      H    0.6562570987    0.3535299795   0.3114062410    49    Uiso    1
