data_C8H14O3
_audit_creation_date              2013-05-06
_audit_creation_method            'Materials Studio'
_symmetry_space_group_name_H-M    'P1'
_symmetry_Int_Tables_number       1
_symmetry_cell_setting            triclinic
loop_
_symmetry_equiv_pos_as_xyz
  x,y,z
_cell_length_a                    9.840000144139096
_cell_length_b                    9.84000014413909600000
_cell_length_c                    11.83250177332582154904
_cell_angle_alpha                 90
_cell_angle_beta                  90
_cell_angle_gamma                 120
loop_
_atom_site_label
_atom_site_type_symbol
_atom_site_fract_x
_atom_site_fract_y
_atom_site_fract_z
_atom_site_U_iso_or_equiv
_atom_site_adp_type
_atom_site_occupancy
Fe1      Fe    0.4399701924    0.3945645939   0.0176229906    0    Uiso    1
O2      O    0.3918950445    0.3934170766   0.1677166510    1    Uiso    1
H3      H    -0.1390663336    -0.0895288026   0.2811608237    2    Uiso    1
H4      H    0.2659910486    0.0612330047   0.2767329489    3    Uiso    1
H5      H    0.1507987279    0.1343659981   0.2207396122    4    Uiso    1
C6      C    0.2025648300    0.1234340944   0.3002978237    5    Uiso    1
C7      C    0.4557561046    0.3820274178   0.2694322291    6    Uiso    1
C8      C    -0.0657096904    -0.1259986728   0.3278549518    7    Uiso    1
H9      H    -0.0271777841    -0.1830895904   0.2659893395    8    Uiso    1
H10      H    -0.1368971654    -0.2089392691   0.3940246318    9    Uiso    1
H11      H    0.8208017113    0.3420885885   0.1881958976    10    Uiso    1
O12      O    0.5525721177    0.3118805841   0.2574522008    11    Uiso    1
C13      C    0.3161382160    0.2843842627   0.3487781572    12    Uiso    1
H14      H    0.5304776557    0.5014431298   0.3051655498    13    Uiso    1
C15      C    0.0720118522    0.0171811922   0.3800416745    14    Uiso    1
H16      H    0.3590098379    0.2715620196   0.4313829538    15    Uiso    1
H17      H    0.7579626952    0.5159396243   0.2982165499    16    Uiso    1
C18      C    0.6982235019    0.3894699315   0.3199500943    17    Uiso    1
C19      C    0.7981056052    0.3216843760   0.2787798443    18    Uiso    1
H20      H    0.2545420896    0.3502618964   0.3629672365    19    Uiso    1
H21      H    0.7385152866    0.1946270594   0.2940981561    20    Uiso    1
O22      O    0.0756530267    0.0442020957   0.4814675493    21    Uiso    1
C23      C    0.6727582504    0.3711278460   0.4475782332    22    Uiso    1
H24      H    0.6033390505    0.2460850078   0.4695407803    23    Uiso    1
H25      H    0.9112703565    0.3766384805   0.3230058003    24    Uiso    1
H26      H    0.6110842816    0.4305441544   0.4790959560    25    Uiso    1
H27      H    0.7859562807    0.4214742004   0.4917470705    26    Uiso    1
C28      C    -0.0166143047    0.4784799503   0.9829038706    27    Uiso    1
C29      C    0.8996393186    0.3110722225   0.9817788381    28    Uiso    1
C30      C    0.1482916557    0.5643518746   0.9828109805    29    Uiso    1
C31      C    0.9041460803    0.5641386182   0.9864600847    30    Uiso    1
C32      C    0.9787973623    0.2253505276   0.9813622570    31    Uiso    1
C33      C    0.7346670213    0.2253244533   0.9844655152    32    Uiso    1
C34      C    0.2277953003    0.4791260212   0.9822496206    33    Uiso    1
C35      C    0.1435717575    0.3106316477   0.9811699077    34    Uiso    1
C36      C    0.7396400173    0.4785371578   0.9904610014    35    Uiso    1
C37      C    0.6556050218    0.3106947174   0.9894842680    36    Uiso    1
C38      C    0.8955999818    0.0575791499   0.9843316666    37    Uiso    1
C39      C    -0.0126922040    0.7319849500   0.9876575636    38    Uiso    1
C40      C    0.2328304329    0.7321083169   0.9856450620    39    Uiso    1
C41      C    0.6501411592    0.0576380483   0.9865090453    40    Uiso    1
C42      C    0.3987000203    0.8108263511   0.9860080013    41    Uiso    1
C43      C    0.8997295134    0.8102829467   0.9879635843    42    Uiso    1
C44      C    -0.0172545387    -0.0211445153   0.9849042061    43    Uiso    1
C45      C    0.4842884720    -0.0205933744   0.9877342446    44    Uiso    1
C46      C    0.7287298949    0.9693925839   0.9874576522    45    Uiso    1
C47      C    0.1541534683    0.8203177517   0.9879569873    46    Uiso    1
C48      C    0.4751891380    0.7179310281   0.9883345767    47    Uiso    1
C49      C    0.7304610655    0.7176685627   0.9929172700    48    Uiso    1
C50      C    0.1521713025    0.0717048437   0.9864037573    49    Uiso    1
C51      C    0.4077291163    0.0720987304   0.9921540201    50    Uiso    1
C52      C    0.6438954121    0.7995333974   0.9913269707    51    Uiso    1
C53      C    0.2391762433    -0.0098002811   0.9904473813    52    Uiso    1
N54      N    0.3882907116    0.5554079805   0.9868517479    53    Uiso    1
N55      N    0.2277092691    0.2342499677   0.9843337277    54    Uiso    1
N56      N    0.6544973867    0.5542489428   0.9976181277    55    Uiso    1
N57      N    0.4949081344    0.2351671285   0.9966723569    56    Uiso    1
