data_CH
_audit_creation_date              2013-05-06
_audit_creation_method            'Materials Studio'
_symmetry_space_group_name_H-M    'P1'
_symmetry_Int_Tables_number       1
_symmetry_cell_setting            triclinic
loop_
_symmetry_equiv_pos_as_xyz
  x,y,z
_cell_length_a                    9.840000144139096
_cell_length_b                    9.84000014413909600000
_cell_length_c                    11.83250177332582154904
_cell_angle_alpha                 90
_cell_angle_beta                  90
_cell_angle_gamma                 120
loop_
_atom_site_label
_atom_site_type_symbol
_atom_site_fract_x
_atom_site_fract_y
_atom_site_fract_z
_atom_site_U_iso_or_equiv
_atom_site_adp_type
_atom_site_occupancy
C1      C    -0.0015972040    -0.0015092023   -0.0042939569    0    Uiso    1
C2      C    0.1677155585    0.0910756093   -0.0012131826    1    Uiso    1
C3      C    0.2545099003    0.0095721269   -0.0009742756    2    Uiso    1
C4      C    0.4227114574    0.0914164208   -0.0018905024    3    Uiso    1
C5      C    0.4995659206    -0.0011316656   -0.0048980358    4    Uiso    1
C6      C    0.6652549722    0.0772417978   -0.0066560182    5    Uiso    1
C7      C    0.7443532764    -0.0106746868   -0.0047455475    6    Uiso    1
C8      C    0.9113179846    0.0771372472   -0.0061648786    7    Uiso    1
C9      C    -0.0055888142    0.2450663995   -0.0097087080    8    Uiso    1
C10      C    0.1592947981    0.3296455542   -0.0074214868    9    Uiso    1
N11      N    0.2429026106    0.2534298615   0.0001735825    10    Uiso    1
N12      N    0.5100365604    0.2542466889   -0.0011401088    11    Uiso    1
C13      C    0.6700932775    0.3299325247   -0.0077944753    12    Uiso    1
C14      C    0.7501668342    0.2451343517   -0.0100224535    13    Uiso    1
C15      C    0.9150849207    0.3306237526   -0.0119627075    14    Uiso    1
C16      C    -0.0013303992    0.4976583816   -0.0124325519    15    Uiso    1
C17      C    0.1636150767    0.5832305144   -0.0107418387    16    Uiso    1
C18      C    0.2435904992    0.4983954364   -0.0082727510    17    Uiso    1
N19      N    0.4038183459    0.5746553963   -0.0015606917    18    Uiso    1
N20      N    0.6703708237    0.5743997880   0.0009913863    19    Uiso    1
C21      C    0.7546722948    0.4984921438   -0.0072520141    20    Uiso    1
C22      C    0.9194153113    0.5833134196   -0.0102835717    21    Uiso    1
C23      C    0.0024814494    0.7511990009   -0.0067176391    22    Uiso    1
C24      C    0.1693931535    0.8391850830   -0.0051000750    23    Uiso    1
C25      C    0.2483624037    0.7512148233   -0.0072963394    24    Uiso    1
C26      C    0.4140595936    0.8297548531   -0.0053121596    25    Uiso    1
C27      C    0.4910134764    0.7374100156   -0.0023688252    26    Uiso    1
C28      C    0.6592447540    0.8190021621   -0.0009736154    27    Uiso    1
C29      C    0.7458635047    0.7372982871   -0.0009057007    28    Uiso    1
C30      C    0.9150391476    0.8295128056   -0.0044123169    29    Uiso    1
Fe31      Fe    0.4584976480    0.4167949962   0.0348082032    30    Uiso    1
C32      C    0.4767706713    0.4424389294   0.1715376053    31    Uiso    1
H33      H    0.5493301920    0.5323071832   0.2359956507    32    Uiso    1
