data_CH2
_audit_creation_date              2013-05-06
_audit_creation_method            'Materials Studio'
_symmetry_space_group_name_H-M    'P1'
_symmetry_Int_Tables_number       1
_symmetry_cell_setting            triclinic
loop_
_symmetry_equiv_pos_as_xyz
  x,y,z
_cell_length_a                    9.840000144139096
_cell_length_b                    9.84000014413909600000
_cell_length_c                    11.83250177332582154904
_cell_angle_alpha                 90
_cell_angle_beta                  90
_cell_angle_gamma                 120
loop_
_atom_site_label
_atom_site_type_symbol
_atom_site_fract_x
_atom_site_fract_y
_atom_site_fract_z
_atom_site_U_iso_or_equiv
_atom_site_adp_type
_atom_site_occupancy
C1      C    0.0004319707    0.0000232702   -0.0072186022    0    Uiso    1
C2      C    0.1695356446    0.0923895794   -0.0047034924    1    Uiso    1
C3      C    0.2564578009    0.0112226995   -0.0028262530    2    Uiso    1
C4      C    0.4248119453    0.0923703073   -0.0021189196    3    Uiso    1
C5      C    0.5014719263    0.0000129702   -0.0053139086    4    Uiso    1
C6      C    0.6669952334    0.0777815466   -0.0068567637    5    Uiso    1
C7      C    0.7458761307    -0.0102184838   -0.0060967833    6    Uiso    1
C8      C    0.9127298383    0.0778415020   -0.0083864004    7    Uiso    1
C9      C    -0.0040829467    0.2461569354   -0.0109764293    8    Uiso    1
C10      C    0.1602025184    0.3309410049   -0.0089370800    9    Uiso    1
N11      N    0.2453142936    0.2560066825   -0.0041423657    10    Uiso    1
N12      N    0.5125499657    0.2557441083   0.0006529398    11    Uiso    1
C13      C    0.6724878300    0.3306158404   -0.0065704528    12    Uiso    1
C14      C    0.7521616778    0.2460120926   -0.0096102866    13    Uiso    1
C15      C    0.9168430808    0.3318034881   -0.0121089753    14    Uiso    1
C16      C    0.0001700619    0.4987679223   -0.0120434262    15    Uiso    1
C17      C    0.1648622273    0.5845783250   -0.0101745434    16    Uiso    1
C18      C    0.2444900463    0.4999188864   -0.0076898596    17    Uiso    1
N19      N    0.4044144398    0.5748646857   -0.0005847410    18    Uiso    1
N20      N    0.6717713361    0.5745651840   -0.0036149573    19    Uiso    1
C21      C    0.7568278162    0.4995644834   -0.0079552114    20    Uiso    1
C22      C    0.9211137490    0.5843968236   -0.0103497600    21    Uiso    1
C23      C    0.0042947444    0.7526941709   -0.0081126153    22    Uiso    1
C24      C    0.1711762424    0.8407643121   -0.0061785745    23    Uiso    1
C25      C    0.2500680199    0.7527767862   -0.0072346152    24    Uiso    1
C26      C    0.4156027235    0.8305720509   -0.0056240270    25    Uiso    1
C27      C    0.4922101878    0.7381847757   -0.0026808542    26    Uiso    1
C28      C    0.6605867880    0.8193013913   -0.0028224648    27    Uiso    1
C29      C    0.7475032572    0.7381333030   -0.0043992801    28    Uiso    1
C30      C    0.9165960715    0.8304970442   -0.0069981024    29    Uiso    1
Fe31      Fe    0.4585156624    0.4155934406   0.0222371840    30    Uiso    1
C32      C    0.4589155317    0.4185244270   0.1678765859    31    Uiso    1
H33      H    0.5439525841    0.4018903532   0.2180542357    32    Uiso    1
H34      H    0.3751516005    0.4388380906   0.2165987997    33    Uiso    1
