data_CH3NH2
_audit_creation_date              2013-05-06
_audit_creation_method            'Materials Studio'
_symmetry_space_group_name_H-M    'P1'
_symmetry_Int_Tables_number       1
_symmetry_cell_setting            triclinic
loop_
_symmetry_equiv_pos_as_xyz
  x,y,z
_cell_length_a                    13.000000078569062
_cell_length_b                    13.00000007856906200000
_cell_length_c                    12.00000107252529404377
_cell_angle_alpha                 90
_cell_angle_beta                  90
_cell_angle_gamma                 90
loop_
_atom_site_label
_atom_site_type_symbol
_atom_site_fract_x
_atom_site_fract_y
_atom_site_fract_z
_atom_site_U_iso_or_equiv
_atom_site_adp_type
_atom_site_occupancy
H1      H    0.1351374688    0.3000567776   1.0370392813    0    Uiso    1
H2      H    0.2803469687    0.1489480721   1.0415915527    1    Uiso    1
C3      C    0.2182706896    0.3072528175   1.0406904962    2    Uiso    1
H4      H    0.1409403833    0.5003018040   1.0399054764    3    Uiso    1
C5      C    0.2907809070    0.2318022504   1.0430468372    4    Uiso    1
H6      H    0.1431520921    0.7004584772   1.0413407569    5    Uiso    1
C7      C    0.2246540838    0.4985368624   1.0431527010    6    Uiso    1
C8      C    0.2724579372    0.4036718890   1.0435489525    7    Uiso    1
C9      C    0.2259071510    0.6898617227   1.0456242127    8    Uiso    1
C10      C    0.2761982101    0.5913713914   1.0465405935    9    Uiso    1
C11      C    0.3891870084    0.2822082179   1.0469615917    10    Uiso    1
H12      H    0.4803748076    0.1468884713   1.0478973236    11    Uiso    1
C13      C    0.3013376252    0.7622702164   1.0502705364    12    Uiso    1
H14      H    0.2942004512    0.8454712516   1.0504049140    13    Uiso    1
N15      N    0.3775689674    0.3879500737   1.0476269500    14    Uiso    1
C16      C    0.4820685938    0.2306483820   1.0485476907    15    Uiso    1
N17      N    0.3818479725    0.6027648170   1.0516156769    16    Uiso    1
C18      C    0.3976093549    0.7079164562   1.0537029514    17    Uiso    1
H19      H    0.4937690170    0.8396827625   1.0565827557    18    Uiso    1
C20      C    0.4923219201    0.7559146300   1.0566622995    19    Uiso    1
C21      C    0.5769895872    0.2784398787   1.0490182580    20    Uiso    1
H22      H    0.6807957748    0.1411523315   1.0451693856    21    Uiso    1
C23      C    0.6734346857    0.2243268205   1.0472989589    22    Uiso    1
C24      C    0.5852610182    0.7045005241   1.0562186220    23    Uiso    1
N25      N    0.5925850537    0.3836652093   1.0506623093    24    Uiso    1
N26      N    0.5967649136    0.5987833839   1.0555242347    25    Uiso    1
C27      C    0.6982776447    0.3953554022   1.0504237711    26    Uiso    1
C28      C    0.7487595649    0.2969791349   1.0481081563    27    Uiso    1
C29      C    0.6836711065    0.7549422239   1.0545103998    28    Uiso    1
C30      C    0.7019884104    0.5831159586   1.0539042790    29    Uiso    1
H31      H    0.6942693326    0.8377669936   1.0532890049    30    Uiso    1
C32      C    0.7497917884    0.4882805318   1.0522604371    31    Uiso    1
H33      H    0.8316012028    0.2866107131   1.0469983593    32    Uiso    1
C34      C    0.7561891165    0.6795270717   1.0530113188    33    Uiso    1
H35      H    0.8335452835    0.4866226656   1.0509089874    34    Uiso    1
H36      H    0.8393501181    0.6867996641   1.0504669243    35    Uiso    1
Fe37      Fe    0.4869007419    0.4931341055   0.0593018716    36    Uiso    1
N38      N    0.4904155730    0.4832852940   0.2427248616    37    Uiso    1
H39      H    0.5173109255    0.4106096140   0.2571367925    38    Uiso    1
H40      H    0.5465134257    0.5332387103   0.2678611773    39    Uiso    1
H41      H    0.3341966931    0.4507411911   0.2686101749    40    Uiso    1
H42      H    0.3686888054    0.5811611371   0.2870129301    41    Uiso    1
C43      C    0.3934747217    0.5018846909   0.3024559137    42    Uiso    1
H44      H    0.3993929025    0.4894294065   0.3929793213    43    Uiso    1
