data_CH3OH
_audit_creation_date              2013-05-06
_audit_creation_method            'Materials Studio'
_symmetry_space_group_name_H-M    'P1'
_symmetry_Int_Tables_number       1
_symmetry_cell_setting            triclinic
loop_
_symmetry_equiv_pos_as_xyz
  x,y,z
_cell_length_a                    13.000000078569062
_cell_length_b                    13.00000007856906200000
_cell_length_c                    12.00000107252529404377
_cell_angle_alpha                 90
_cell_angle_beta                  90
_cell_angle_gamma                 90
loop_
_atom_site_label
_atom_site_type_symbol
_atom_site_fract_x
_atom_site_fract_y
_atom_site_fract_z
_atom_site_U_iso_or_equiv
_atom_site_adp_type
_atom_site_occupancy
H1      H    0.1354890184    0.3001250650   1.0454415363    0    Uiso    1
H2      H    0.2799966423    0.1491780339   1.0498784382    1    Uiso    1
C3      C    0.2187252402    0.3076061542   1.0463745412    2    Uiso    1
H4      H    0.1420127253    0.5009658294   1.0384110533    3    Uiso    1
C5      C    0.2911271719    0.2320002837   1.0484142299    4    Uiso    1
H6      H    0.1438043529    0.7014538909   1.0460575794    5    Uiso    1
C7      C    0.2256114913    0.4989795382   1.0437414852    6    Uiso    1
C8      C    0.2731824845    0.4039596510   1.0458729479    7    Uiso    1
C9      C    0.2266082895    0.6903641053   1.0486833244    8    Uiso    1
C10      C    0.2770270813    0.5918837599   1.0473639855    9    Uiso    1
C11      C    0.3897863733    0.2822372440   1.0485688406    10    Uiso    1
H12      H    0.4814426117    0.1471913802   1.0452045402    11    Uiso    1
C13      C    0.3020210030    0.7627643286   1.0539516165    12    Uiso    1
H14      H    0.2944756603    0.8459382305   1.0548275811    13    Uiso    1
N15      N    0.3782937101    0.3879767990   1.0484859849    14    Uiso    1
C16      C    0.4828522177    0.2309325738   1.0477660228    15    Uiso    1
N17      N    0.3827469385    0.6033273112   1.0522343156    16    Uiso    1
C18      C    0.3984091458    0.7085791536   1.0552102938    17    Uiso    1
H19      H    0.4952114556    0.8400992938   1.0542732471    18    Uiso    1
C20      C    0.4932470264    0.7563637020   1.0567039534    19    Uiso    1
C21      C    0.5777069236    0.2787972223   1.0483440804    20    Uiso    1
H22      H    0.6820433214    0.1412915095   1.0521012962    21    Uiso    1
C23      C    0.6741944328    0.2244623144   1.0504974765    22    Uiso    1
C24      C    0.5860241709    0.7046911360   1.0563772632    23    Uiso    1
N25      N    0.5935071660    0.3838663557   1.0490941120    24    Uiso    1
N26      N    0.5976224128    0.5988303270   1.0550613062    25    Uiso    1
C27      C    0.6991042619    0.3955450106   1.0510784994    26    Uiso    1
C28      C    0.7495045436    0.2970126262   1.0523845867    27    Uiso    1
C29      C    0.6844016648    0.7550537439   1.0574118870    28    Uiso    1
C30      C    0.7029538434    0.5832649208   1.0542090743    29    Uiso    1
H31      H    0.6952859428    0.8378629007   1.0583606249    30    Uiso    1
C32      C    0.7507369208    0.4884074078   1.0523292372    31    Uiso    1
H33      H    0.8322656694    0.2862272384   1.0549903863    32    Uiso    1
C34      C    0.7569571185    0.6797032550   1.0562909417    33    Uiso    1
H35      H    0.8345222886    0.4869927643   1.0505228015    34    Uiso    1
H36      H    0.8401155628    0.6874784831   1.0571121387    35    Uiso    1
Fe37      Fe    0.4880301944    0.4929610506   0.0557909534    36    Uiso    1
O38      O    0.4908497868    0.4797108278   0.2449288023    37    Uiso    1
H39      H    0.5296914223    0.5408083628   0.2669464392    38    Uiso    1
H40      H    0.3413911061    0.5378075095   0.2693631751    39    Uiso    1
C41      C    0.3929315720    0.4776877663   0.3015344539    40    Uiso    1
H42      H    0.3585518978    0.4022570256   0.2846517134    41    Uiso    1
H43      H    0.4029671365    0.4866139134   0.3919332330    42    Uiso    1
