data_CH4
_audit_creation_date              2013-05-06
_audit_creation_method            'Materials Studio'
_symmetry_space_group_name_H-M    'P1'
_symmetry_Int_Tables_number       1
_symmetry_cell_setting            triclinic
loop_
_symmetry_equiv_pos_as_xyz
  x,y,z
_cell_length_a                    13.000000078569062
_cell_length_b                    13.00000007856906200000
_cell_length_c                    12.00000107252529404377
_cell_angle_alpha                 90
_cell_angle_beta                  90
_cell_angle_gamma                 90
loop_
_atom_site_label
_atom_site_type_symbol
_atom_site_fract_x
_atom_site_fract_y
_atom_site_fract_z
_atom_site_U_iso_or_equiv
_atom_site_adp_type
_atom_site_occupancy
H1      H    0.1369567358    0.3016318054   1.0424034697    0    Uiso    1
H2      H    0.2819236464    0.1505513439   1.0379003616    1    Uiso    1
C3      C    0.2201415310    0.3088554758   1.0421641942    2    Uiso    1
H4      H    0.1427998682    0.5015285027   1.0473929861    3    Uiso    1
C5      C    0.2925114991    0.2333637473   1.0398925589    4    Uiso    1
H6      H    0.1452486912    0.7013798285   1.0505824141    5    Uiso    1
C7      C    0.2265273593    0.4997270304   1.0472277485    6    Uiso    1
C8      C    0.2743956227    0.4050745967   1.0445369185    7    Uiso    1
C9      C    0.2280588603    0.6906731678   1.0506001444    8    Uiso    1
C10      C    0.2782743871    0.5922896753   1.0491395251    9    Uiso    1
C11      C    0.3909249950    0.2835626651   1.0407183132    10    Uiso    1
H12      H    0.4817527692    0.1481158275   1.0373257651    11    Uiso    1
C13      C    0.3035302258    0.7630359115   1.0515913324    12    Uiso    1
H14      H    0.2962180887    0.8461858164   1.0526649417    13    Uiso    1
N15      N    0.3796076149    0.3893221370   1.0434613837    14    Uiso    1
C16      C    0.4835085973    0.2318150864   1.0395474849    15    Uiso    1
N17      N    0.3840782281    0.6035666780   1.0494737690    16    Uiso    1
C18      C    0.3997677744    0.7087936989   1.0510131395    17    Uiso    1
H19      H    0.4961104351    0.8404026377   1.0528243177    18    Uiso    1
C20      C    0.4944023428    0.7566840162   1.0518428869    19    Uiso    1
C21      C    0.5781676813    0.2797079941   1.0409977746    20    Uiso    1
H22      H    0.6815534357    0.1422780366   1.0383007076    21    Uiso    1
C23      C    0.6744121435    0.2254573726   1.0405274805    22    Uiso    1
C24      C    0.5869614355    0.7049125652   1.0517086369    23    Uiso    1
N25      N    0.5938474007    0.3848951302   1.0437832214    24    Uiso    1
N26      N    0.5983403296    0.5991500871   1.0501432775    25    Uiso    1
C27      C    0.6996233121    0.3962717577   1.0456654086    26    Uiso    1
C28      C    0.7498406689    0.2978486036   1.0434282043    27    Uiso    1
C29      C    0.6853281291    0.7551907048   1.0533782820    28    Uiso    1
C30      C    0.7035797412    0.5835371924   1.0506766267    29    Uiso    1
H31      H    0.6959922795    0.8379740571   1.0547584396    30    Uiso    1
C32      C    0.7514037142    0.4888537652   1.0489358340    31    Uiso    1
H33      H    0.8326567257    0.2871851546   1.0441308740    32    Uiso    1
C34      C    0.7577720616    0.6798004974   1.0529955246    33    Uiso    1
H35      H    0.8351445375    0.4871668309   1.0496241871    34    Uiso    1
H36      H    0.8409344834    0.6871025717   1.0540037859    35    Uiso    1
Fe37      Fe    0.4890012666    0.4940900284   0.0473228699    36    Uiso    1
H38      H    0.4429896000    0.4460938494   0.2696341669    37    Uiso    1
C39      C    0.5023067572    0.4196754915   0.3280313854    38    Uiso    1
H40      H    0.5786920355    0.4325671969   0.2921103203    39    Uiso    1
H41      H    0.4914819960    0.3372916933   0.3431579843    40    Uiso    1
H42      H    0.4953209929    0.4622797707   0.4064013527    41    Uiso    1
