data_Cl
_audit_creation_date              2013-05-06
_audit_creation_method            'Materials Studio'
_symmetry_space_group_name_H-M    'P1'
_symmetry_Int_Tables_number       1
_symmetry_cell_setting            triclinic
loop_
_symmetry_equiv_pos_as_xyz
  x,y,z
_cell_length_a                    9.840000144139096
_cell_length_b                    9.84000014413909600000
_cell_length_c                    11.83250177332582154904
_cell_angle_alpha                 90
_cell_angle_beta                  90
_cell_angle_gamma                 120
loop_
_atom_site_label
_atom_site_type_symbol
_atom_site_fract_x
_atom_site_fract_y
_atom_site_fract_z
_atom_site_U_iso_or_equiv
_atom_site_adp_type
_atom_site_occupancy
C1      C    0.0002157129    0.0010084284   -0.0045952909    0    Uiso    1
C2      C    0.1695287346    0.0938166130   -0.0021280899    1    Uiso    1
C3      C    0.2565203425    0.0122873969   -0.0011899233    2    Uiso    1
C4      C    0.4250427928    0.0938167336   -0.0021705443    3    Uiso    1
C5      C    0.5015437927    0.0010021195   -0.0046206669    4    Uiso    1
C6      C    0.6673402871    0.0793354081   -0.0043863455    5    Uiso    1
C7      C    0.7458848076    -0.0089834383   -0.0031237355    6    Uiso    1
C8      C    0.9127376911    0.0793346244   -0.0043562644    7    Uiso    1
C9      C    -0.0042127522    0.2470868487   -0.0051420056    8    Uiso    1
C10      C    0.1603685291    0.3325769357   -0.0050252837    9    Uiso    1
N11      N    0.2452175111    0.2568592240   -0.0017919288    10    Uiso    1
N12      N    0.5123942297    0.2568544145   -0.0018840738    11    Uiso    1
C13      C    0.6729519828    0.3325743360   -0.0051350428    12    Uiso    1
C14      C    0.7520656782    0.2470840807   -0.0051997146    13    Uiso    1
C15      C    0.9168594586    0.3329878829   -0.0049728091    14    Uiso    1
C16      C    0.0006060256    0.5004353818   -0.0049715330    15    Uiso    1
C17      C    0.1653982102    0.5863398813   -0.0051398002    16    Uiso    1
C18      C    0.2445133862    0.5008465911   -0.0050233950    17    Uiso    1
N19      N    0.4050720014    0.5765663262   -0.0017877469    18    Uiso    1
N20      N    0.6722495023    0.5765661755   -0.0018811301    19    Uiso    1
C21      C    0.7570965065    0.5008470198   -0.0051328486    20    Uiso    1
C22      C    0.9216781109    0.5863368731   -0.0051971796    21    Uiso    1
C23      C    0.0047237906    0.7540866209   -0.0043854692    22    Uiso    1
C24      C    0.1715783211    0.8424060793   -0.0031263895    23    Uiso    1
C25      C    0.2501230272    0.7540864606   -0.0043561484    24    Uiso    1
C26      C    0.4159199871    0.8324182422   -0.0045944779    25    Uiso    1
C27      C    0.4924210829    0.7396030810   -0.0021227672    26    Uiso    1
C28      C    0.6609424243    0.8211357981   -0.0011842853    27    Uiso    1
C29      C    0.7479365098    0.7396062067   -0.0021656725    28    Uiso    1
C30      C    0.9172494239    0.8324161412   -0.0046184696    29    Uiso    1
Fe31      Fe    0.4587490401    0.4167112164   0.0210940511    30    Uiso    1
Cl32      Cl    0.4589438513    0.4167202966   0.2071949814    31    Uiso    1
