data_CO
_audit_creation_date              2013-05-06
_audit_creation_method            'Materials Studio'
_symmetry_space_group_name_H-M    'P1'
_symmetry_Int_Tables_number       1
_symmetry_cell_setting            triclinic
loop_
_symmetry_equiv_pos_as_xyz
  x,y,z
_cell_length_a                    9.840000144139096
_cell_length_b                    9.84000014413909600000
_cell_length_c                    11.83250177332582154904
_cell_angle_alpha                 90
_cell_angle_beta                  90
_cell_angle_gamma                 120
loop_
_atom_site_label
_atom_site_type_symbol
_atom_site_fract_x
_atom_site_fract_y
_atom_site_fract_z
_atom_site_U_iso_or_equiv
_atom_site_adp_type
_atom_site_occupancy
C1      C    0.002724385    0.001136216   -0.007097491    0    Uiso    1
C2      C    0.171548908    0.093336105   -0.004694632    1    Uiso    1
C3      C    0.259035937    0.012492247   -0.005579627    2    Uiso    1
C4      C    0.427469796    0.093387701   -0.007133481    3    Uiso    1
C5      C    0.504004500    0.001032597   -0.008567295    4    Uiso    1
C6      C    0.669414252    0.078733613   -0.009589198    5    Uiso    1
C7      C    0.748137127    -0.009326785   -0.007852389    6    Uiso    1
C8      C    0.914922341    0.078755333   -0.007766009    7    Uiso    1
C9      C    -0.002361977    0.247046542   -0.008306398    8    Uiso    1
C10      C    0.160876304    0.331940135   -0.005136533    9    Uiso    1
N11      N    0.246662887    0.256398464   -0.001299363    10    Uiso    1
N12      N    0.515323028    0.256236019   -0.006928465    11    Uiso    1
C13      C    0.676430975    0.331826247   -0.010883776    12    Uiso    1
C14      C    0.754888620    0.246957672   -0.011484418    13    Uiso    1
C15      C    0.919404281    0.333236435   -0.010916422    14    Uiso    1
C16      C    0.002713404    0.499855637   -0.010899376    15    Uiso    1
C17      C    0.167125084    0.586035631   -0.008286706    16    Uiso    1
C18      C    0.245485046    0.501110021   -0.005105429    17    Uiso    1
N19      N    0.406796210    0.576641457   -0.001305747    18    Uiso    1
N20      N    0.675620435    0.576801180   -0.006791206    19    Uiso    1
C21      C    0.761118752    0.501187023   -0.010811501    20    Uiso    1
C22      C    0.924479413    0.586103779   -0.011411809    21    Uiso    1
C23      C    0.007210088    0.754350832   -0.009513613    22    Uiso    1
C24      C    0.173981921    0.842391221   -0.007897254    23    Uiso    1
C25      C    0.252728104    0.754324135   -0.007840655    24    Uiso    1
C26      C    0.418121500    0.831928940   -0.007202771    25    Uiso    1
C27      C    0.494742145    0.739711033   -0.004715952    26    Uiso    1
C28      C    0.663091231    0.820583965   -0.005541360    27    Uiso    1
C29      C    0.750617872    0.739712260   -0.007017285    28    Uiso    1
C30      C    0.919505548    0.832046534   -0.008433274    29    Uiso    1
Fe31      Fe    0.461397778    0.416419337   0.011206420    30    Uiso    1
C32      C    0.459592409    0.427865109   0.205968203    31    Uiso    1
O33      O    0.417111696    0.465943361   0.283685296    32    Uiso    1
