data_CO2
_audit_creation_date              2013-05-06
_audit_creation_method            'Materials Studio'
_symmetry_space_group_name_H-M    'P1'
_symmetry_Int_Tables_number       1
_symmetry_cell_setting            triclinic
loop_
_symmetry_equiv_pos_as_xyz
  x,y,z
_cell_length_a                    9.840000144139096
_cell_length_b                    9.84000014413909600000
_cell_length_c                    11.83250177332582154904
_cell_angle_alpha                 90
_cell_angle_beta                  90
_cell_angle_gamma                 120
loop_
_atom_site_label
_atom_site_type_symbol
_atom_site_fract_x
_atom_site_fract_y
_atom_site_fract_z
_atom_site_U_iso_or_equiv
_atom_site_adp_type
_atom_site_occupancy
C1      C    0.0008695068    0.0006010316   -0.0142047305    0    Uiso    1
C2      C    0.1703461021    0.0930269511   -0.0149720793    1    Uiso    1
C3      C    0.2568682894    0.0110450465   -0.0146330354    2    Uiso    1
C4      C    0.4253688692    0.0930360350   -0.0149349989    3    Uiso    1
C5      C    0.5024235232    0.0006091955   -0.0141852394    4    Uiso    1
C6      C    0.6684864875    0.0795704955   -0.0137194391    5    Uiso    1
C7      C    0.7471953415    -0.0082951214   -0.0139097865    6    Uiso    1
C8      C    0.9137687662    0.0795699189   -0.0137471922    7    Uiso    1
C9      C    -0.0032439527    0.2472180364   -0.0134071183    8    Uiso    1
C10      C    0.1609215846    0.3331027837   -0.0146496833    9    Uiso    1
N11      N    0.2454534874    0.2551465875   -0.0162131737    10    Uiso    1
N12      N    0.5123909499    0.2551552960   -0.0161504382    11    Uiso    1
C13      C    0.6748642438    0.3331021821   -0.0145201369    12    Uiso    1
C14      C    0.7531554426    0.2472176903   -0.0133374182    13    Uiso    1
C15      C    0.9177491159    0.3328098260   -0.0129066669    14    Uiso    1
C16      C    0.0014363862    0.5001793790   -0.0130699979    15    Uiso    1
C17      C    0.1660438567    0.5857900288   -0.0136385945    16    Uiso    1
C18      C    0.2442633724    0.4998392147   -0.0146644296    17    Uiso    1
N19      N    0.4068527122    0.5778523546   -0.0159688797    18    Uiso    1
N20      N    0.6736745206    0.5778421105   -0.0158066734    19    Uiso    1
C21      C    0.7582638604    0.4998385053   -0.0144986466    20    Uiso    1
C22      C    0.9224298141    0.5857903708   -0.0135445676    21    Uiso    1
C23      C    0.0054158648    0.7534104887   -0.0138572454    22    Uiso    1
C24      C    0.1719985557    0.8413121599   -0.0139252684    23    Uiso    1
C25      C    0.2506816187    0.7534110587   -0.0139159834    24    Uiso    1
C26      C    0.4167738532    0.8324362544   -0.0142934996    25    Uiso    1
C27      C    0.4938349267    0.7400232198   -0.0150559652    26    Uiso    1
C28      C    0.6623342901    0.8219806938   -0.0148105121    27    Uiso    1
C29      C    0.7488669783    0.7400188867   -0.0149694905    28    Uiso    1
C30      C    0.9183429450    0.8324305525   -0.0142347630    29    Uiso    1
Fe31      Fe    0.4596011425    0.4165159479   -0.0183959683    30    Uiso    1
C32      C    0.4783630177    0.4475025864   0.2653831797    31    Uiso    1
O33      O    0.5469226615    0.5848280198   0.2704762297    32    Uiso    1
O34      O    0.4096845653    0.3100199884   0.2604334904    33    Uiso    1
