data_H2O
_audit_creation_date              2013-05-06
_audit_creation_method            'Materials Studio'
_symmetry_space_group_name_H-M    'P1'
_symmetry_Int_Tables_number       1
_symmetry_cell_setting            triclinic
loop_
_symmetry_equiv_pos_as_xyz
  x,y,z
_cell_length_a                    13.000000078569062
_cell_length_b                    13.00000007856906200000
_cell_length_c                    12.00000107252529404377
_cell_angle_alpha                 90
_cell_angle_beta                  90
_cell_angle_gamma                 90
loop_
_atom_site_label
_atom_site_type_symbol
_atom_site_fract_x
_atom_site_fract_y
_atom_site_fract_z
_atom_site_U_iso_or_equiv
_atom_site_adp_type
_atom_site_occupancy
H1      H    0.1354572945    0.3026856210   1.0458496441    0    Uiso    1
H2      H    0.2805202580    0.1517886952   1.0482665329    1    Uiso    1
C3      C    0.2186089524    0.3100043278   1.0480678264    2    Uiso    1
H4      H    0.1411396797    0.5025014782   1.0479189734    3    Uiso    1
C5      C    0.2910459900    0.2346175832   1.0492678402    4    Uiso    1
H6      H    0.1435346315    0.7031196177   1.0455279836    5    Uiso    1
C7      C    0.2248805479    0.5010516961   1.0496259676    6    Uiso    1
C8      C    0.2728994983    0.4063721405   1.0499601512    7    Uiso    1
C9      C    0.2263274033    0.6923853610   1.0479240627    8    Uiso    1
C10      C    0.2763952386    0.5939133970   1.0503512629    9    Uiso    1
C11      C    0.3894792410    0.2850178318   1.0519018648    10    Uiso    1
H12      H    0.4803605627    0.1495383549   1.0536366491    11    Uiso    1
C13      C    0.3018894636    0.7648120335   1.0485817694    12    Uiso    1
H14      H    0.2946297325    0.8479896988   1.0467545453    13    Uiso    1
N15      N    0.3780072819    0.3906393945   1.0520577670    14    Uiso    1
C16      C    0.4821249428    0.2332906692   1.0536785724    15    Uiso    1
N17      N    0.3822076535    0.6052946774   1.0527039009    16    Uiso    1
C18      C    0.3981560643    0.7105798618   1.0514789607    17    Uiso    1
H19      H    0.4948733652    0.8419785402   1.0512680127    18    Uiso    1
C20      C    0.4930998094    0.7582280375   1.0523616124    19    Uiso    1
C21      C    0.5769403576    0.2810175252   1.0545697019    20    Uiso    1
H22      H    0.6802797071    0.1433744102   1.0542431022    21    Uiso    1
C23      C    0.6731749468    0.2265766968   1.0546891023    22    Uiso    1
C24      C    0.5859194126    0.7065868948   1.0532279799    23    Uiso    1
N25      N    0.5927698077    0.3861078229   1.0547227790    24    Uiso    1
N26      N    0.5974215342    0.6007578504   1.0544257744    25    Uiso    1
C27      C    0.6985185246    0.3974220654   1.0551694490    26    Uiso    1
C28      C    0.7487346345    0.2988642717   1.0550361431    27    Uiso    1
C29      C    0.6843839061    0.7568063988   1.0526376091    28    Uiso    1
C30      C    0.7026967041    0.5850130421   1.0547318264    29    Uiso    1
H31      H    0.6950914537    0.8396158294   1.0511406334    30    Uiso    1
C32      C    0.7503530404    0.4900686938   1.0556425695    31    Uiso    1
H33      H    0.8315393337    0.2880818928   1.0548907558    32    Uiso    1
C34      C    0.7568737795    0.6813222049   1.0536262692    33    Uiso    1
H35      H    0.8341050792    0.4881260230   1.0560451011    34    Uiso    1
H36      H    0.8400673012    0.6886046222   1.0531592957    35    Uiso    1
Fe37      Fe    0.4873961154    0.4954289948   0.0583745206    36    Uiso    1
O38      O    0.4868354564    0.5040411197   0.2507684824    37    Uiso    1
H39      H    0.4415094169    0.5631444447   0.2619838392    38    Uiso    1
H40      H    0.5561118774    0.5298001798   0.2656111659    39    Uiso    1
