data_HCOH
_audit_creation_date              2013-05-06
_audit_creation_method            'Materials Studio'
_symmetry_space_group_name_H-M    'P1'
_symmetry_Int_Tables_number       1
_symmetry_cell_setting            triclinic
loop_
_symmetry_equiv_pos_as_xyz
  x,y,z
_cell_length_a                    9.840000144139096
_cell_length_b                    9.84000014413909600000
_cell_length_c                    11.83250177332582154904
_cell_angle_alpha                 90
_cell_angle_beta                  90
_cell_angle_gamma                 120
loop_
_atom_site_label
_atom_site_type_symbol
_atom_site_fract_x
_atom_site_fract_y
_atom_site_fract_z
_atom_site_U_iso_or_equiv
_atom_site_adp_type
_atom_site_occupancy
C1      C    0.0077066363    -0.0036937395   -0.0024435375    0    Uiso    1
C2      C    0.1767515778    0.0887519174   -0.0001597832    1    Uiso    1
C3      C    0.2638122590    0.0075031154   0.0007883167    2    Uiso    1
C4      C    0.4320278419    0.0884895163   0.0006438107    3    Uiso    1
C5      C    0.5086573236    -0.0039129965   -0.0014613600    4    Uiso    1
C6      C    0.6741649024    0.0738796960   -0.0027606568    5    Uiso    1
C7      C    0.7529680266    -0.0141963429   -0.0014424771    6    Uiso    1
C8      C    0.9198697791    0.0739708384   -0.0036669928    7    Uiso    1
C9      C    0.0029205405    0.2422030844   -0.0069702856    8    Uiso    1
C10      C    0.1671794891    0.3268509488   -0.0050664208    9    Uiso    1
N11      N    0.2523549047    0.2521655007   0.0009093827    10    Uiso    1
N12      N    0.5197368525    0.2519031186   0.0019760551    11    Uiso    1
C13      C    0.6797054531    0.3268218177   -0.0033176108    12    Uiso    1
C14      C    0.7593618640    0.2422196789   -0.0058418270    13    Uiso    1
C15      C    0.9239893106    0.3279262909   -0.0082403970    14    Uiso    1
C16      C    0.0075390301    0.4949937088   -0.0080696291    15    Uiso    1
C17      C    0.1721686971    0.5806461236   -0.0063039153    16    Uiso    1
C18      C    0.2516820258    0.4959497405   -0.0045682751    17    Uiso    1
N19      N    0.4115388856    0.5707219892   0.0014985055    18    Uiso    1
N20      N    0.6793344215    0.5710135750   0.0030571997    19    Uiso    1
C21      C    0.7643300783    0.4960309652   -0.0029755519    20    Uiso    1
C22      C    0.9285870105    0.5806950670   -0.0058723818    21    Uiso    1
C23      C    0.0117298349    0.7490035475   -0.0034045190    22    Uiso    1
C24      C    0.1786070113    0.8370506331   -0.0020349818    23    Uiso    1
C25      C    0.2574140192    0.7489210767   -0.0032197782    24    Uiso    1
C26      C    0.4228757673    0.8266103427   -0.0016136575    25    Uiso    1
C27      C    0.4994648175    0.7341624975   0.0008288800    26    Uiso    1
C28      C    0.6677514571    0.8153385020   0.0016491425    27    Uiso    1
C29      C    0.7550379709    0.7343898198   0.0010834693    28    Uiso    1
C30      C    0.9240506261    0.8268483910   -0.0020313867    29    Uiso    1
Fe31      Fe    0.4652578967    0.4114486835   0.0236561022    30    Uiso    1
C32      C    0.4617479090    0.4093995562   0.1700235522    31    Uiso    1
H33      H    0.5576489146    0.4128599441   0.2215354337    32    Uiso    1
O34      O    0.3441504455    0.4025656991   0.2328535252    33    Uiso    1
H35      H    0.3648264200    0.4027876931   0.3139420495    34    Uiso    1
