data_HCOOH
_audit_creation_date              2013-05-06
_audit_creation_method            'Materials Studio'
_symmetry_space_group_name_H-M    'P1'
_symmetry_Int_Tables_number       1
_symmetry_cell_setting            triclinic
loop_
_symmetry_equiv_pos_as_xyz
  x,y,z
_cell_length_a                    13.000000078569062
_cell_length_b                    13.00000007856906200000
_cell_length_c                    12.00000107252529404377
_cell_angle_alpha                 90
_cell_angle_beta                  90
_cell_angle_gamma                 90
loop_
_atom_site_label
_atom_site_type_symbol
_atom_site_fract_x
_atom_site_fract_y
_atom_site_fract_z
_atom_site_U_iso_or_equiv
_atom_site_adp_type
_atom_site_occupancy
H1      H    0.1404155448    0.3015198530   1.0633909289    0    Uiso    1
H2      H    0.1489279575    0.7029150070   1.0518567126    1    Uiso    1
H3      H    0.2852463499    0.1509749904   1.0648248787    2    Uiso    1
C4      C    0.2235438203    0.3091338468   1.0609644560    3    Uiso    1
H5      H    0.1460177164    0.5019939570   1.0529930628    4    Uiso    1
C6      C    0.2963719425    0.2337169958   1.0615529924    5    Uiso    1
C7      C    0.2316445222    0.6916277153   1.0509460587    6    Uiso    1
H8      H    0.3005317183    0.8469641042   1.0531084391    7    Uiso    1
H9      H    0.6863326813    0.1425149073   1.0492142077    8    Uiso    1
C10      C    0.2297652056    0.5002898261   1.0524553867    9    Uiso    1
C11      C    0.3076503419    0.7637587147   1.0515974692    10    Uiso    1
C12      C    0.2774336572    0.4053167415   1.0553961897    11    Uiso    1
C13      C    0.2813877218    0.5931015964   1.0501568439    12    Uiso    1
H14      H    0.8376488925    0.2866285697   1.0386352744    13    Uiso    1
H15      H    0.4863947911    0.1487428286   1.0567051488    14    Uiso    1
H16      H    0.7009072783    0.8386684788   1.0525996001    15    Uiso    1
C17      C    0.3947438001    0.2836263454   1.0562846947    16    Uiso    1
C18      C    0.6791209103    0.2256569633   1.0457528508    17    Uiso    1
H19      H    0.8462102535    0.6887816350   1.0426941380    18    Uiso    1
N20      N    0.3828329573    0.3893783664   1.0531145366    19    Uiso    1
C21      C    0.7549350299    0.2977727544   1.0405430704    20    Uiso    1
C22      C    0.4879573080    0.2324813573   1.0538547170    21    Uiso    1
N23      N    0.3874237121    0.6042951756   1.0495012848    22    Uiso    1
C24      C    0.4037476094    0.7094966829   1.0507381428    23    Uiso    1
C25      C    0.6902529813    0.7558608310   1.0500013387    24    Uiso    1
C26      C    0.5829532336    0.2799024626   1.0478636095    25    Uiso    1
H27      H    0.5006128878    0.8406794086   1.0534615415    26    Uiso    1
C28      C    0.7631425161    0.6806804272   1.0450634409    27    Uiso    1
C29      C    0.4988739353    0.7569200919   1.0519615386    28    Uiso    1
C30      C    0.5919970575    0.7056579501   1.0503495230    29    Uiso    1
N31      N    0.5991972426    0.3849701032   1.0438095122    30    Uiso    1
C32      C    0.7050823191    0.3963200544   1.0400681982    31    Uiso    1
C33      C    0.7093811677    0.5842561045   1.0430650473    32    Uiso    1
N34      N    0.6038930521    0.5998766851   1.0467054428    33    Uiso    1
H35      H    0.8405146679    0.4874550997   1.0356129494    34    Uiso    1
C36      C    0.7568048727    0.4892257119   1.0388202958    35    Uiso    1
Fe37      Fe    0.4933675906    0.4943931389   0.0474654119    36    Uiso    1
C38      C    0.4747538603    0.4989180936   0.3178638314    37    Uiso    1
H39      H    0.5181235804    0.5702966368   0.3005384234    38    Uiso    1
O40      O    0.5117020946    0.4134983894   0.3237318355    39    Uiso    1
O41      O    0.3740477281    0.5218751759   0.3315431081    40    Uiso    1
H42      H    0.3372376850    0.4567452750   0.3440247421    41    Uiso    1
