data_Li2S2
_audit_creation_date              2013-05-06
_audit_creation_method            'Materials Studio'
_symmetry_space_group_name_H-M    'P1'
_symmetry_Int_Tables_number       1
_symmetry_cell_setting            triclinic
loop_
_symmetry_equiv_pos_as_xyz
  x,y,z
_cell_length_a                    9.840000144139096
_cell_length_b                    9.84000014413909600000
_cell_length_c                    11.83250177332582154904
_cell_angle_alpha                 90
_cell_angle_beta                  90
_cell_angle_gamma                 120
loop_
_atom_site_label
_atom_site_type_symbol
_atom_site_fract_x
_atom_site_fract_y
_atom_site_fract_z
_atom_site_U_iso_or_equiv
_atom_site_adp_type
_atom_site_occupancy
C1      C    0.0076761324    0.4984746316   -0.0064249056    0    Uiso    1
C2      C    0.9235645320    0.3307220583   -0.0058696933    1    Uiso    1
C3      C    0.9282619011    0.5837890229   -0.0057588278    2    Uiso    1
C4      C    0.1722718207    0.5842209915   -0.0056952452    3    Uiso    1
C5      C    0.7588674034    0.2449886705   -0.0050564833    4    Uiso    1
C6      C    0.0025815226    0.2450373560   -0.0049571027    5    Uiso    1
C7      C    0.7642391098    0.4980610853   -0.0032005093    6    Uiso    1
C8      C    0.6798242815    0.3301413367   -0.0034280816    7    Uiso    1
C9      C    0.2516099572    0.4989835152   -0.0035498437    8    Uiso    1
C10      C    0.1672960822    0.3306083932   -0.0033457923    9    Uiso    1
C11      C    0.0121338485    0.7517755919   -0.0052257655    10    Uiso    1
C12      C    0.2569444370    0.7518169363   -0.0049491975    11    Uiso    1
C13      C    0.9195983278    0.0772177695   -0.0043391445    12    Uiso    1
C14      C    0.6745319162    0.0772939497   -0.0040926122    13    Uiso    1
C15      C    0.9251672034    0.8306754429   -0.0051412636    14    Uiso    1
C16      C    0.5084675253    -0.0013798189   -0.0042806084    15    Uiso    1
C17      C    0.4228044598    0.8303310650   -0.0047031618    16    Uiso    1
C18      C    0.0077996639    -0.0009606998   -0.0047013017    17    Uiso    1
C19      C    0.7533160963    -0.0103156107   -0.0029502606    18    Uiso    1
C20      C    0.1786274031    0.8399234616   -0.0040054773    19    Uiso    1
C21      C    0.7560364686    0.7381942905   -0.0025905992    20    Uiso    1
C22      C    0.4322050962    0.0914357360   -0.0018679281    21    Uiso    1
C23      C    0.4990172256    0.7373685821   -0.0027466766    22    Uiso    1
C24      C    0.1768787282    0.0912297459   -0.0021364713    23    Uiso    1
N25      N    0.6786178587    0.5743557382   0.0018810722    24    Uiso    1
N26      N    0.5188480721    0.2538107346   0.0002827065    25    Uiso    1
C27      C    0.6681246116    0.8194986473   -0.0008556571    26    Uiso    1
N28      N    0.4127852919    0.5746916498   -0.0008126800    27    Uiso    1
C29      C    0.2635035168    0.0095196631   -0.0016037010    28    Uiso    1
N30      N    0.2534306657    0.2544880960   -0.0003061258    29    Uiso    1
Fe31      Fe    0.4650056724    0.4133043624   0.0188885091    30    Uiso    1
Li32      Li    0.6213908043    0.6529982482   0.1718774322    31    Uiso    1
Li33      Li    0.2084717724    0.3500397236   0.1958746327    32    Uiso    1
S34      S    0.4608354020    0.3806052813   0.2080048551    33    Uiso    1
S35      S    0.4133423821    0.5423645320   0.2966074828    34    Uiso    1
