data_Li2S4
_audit_creation_date              2013-05-06
_audit_creation_method            'Materials Studio'
_symmetry_space_group_name_H-M    'P1'
_symmetry_Int_Tables_number       1
_symmetry_cell_setting            triclinic
loop_
_symmetry_equiv_pos_as_xyz
  x,y,z
_cell_length_a                    9.840000144139096
_cell_length_b                    9.84000014413909600000
_cell_length_c                    11.83250177332582154904
_cell_angle_alpha                 90
_cell_angle_beta                  90
_cell_angle_gamma                 120
loop_
_atom_site_label
_atom_site_type_symbol
_atom_site_fract_x
_atom_site_fract_y
_atom_site_fract_z
_atom_site_U_iso_or_equiv
_atom_site_adp_type
_atom_site_occupancy
C1      C    -0.0119597162    0.4759717286   -0.0080771006    0    Uiso    1
C2      C    0.9045543543    0.3084794885   -0.0081103807    1    Uiso    1
C3      C    0.9089554444    0.5616726349   -0.0063755985    2    Uiso    1
C4      C    0.1527333592    0.5617101053   -0.0078582026    3    Uiso    1
C5      C    0.7397894653    0.2228797747   -0.0069081119    4    Uiso    1
C6      C    -0.0164996877    0.2227193277   -0.0075464717    5    Uiso    1
C7      C    0.7445282199    0.4761747463   -0.0045553925    6    Uiso    1
C8      C    0.6608146847    0.3082606779   -0.0047365907    7    Uiso    1
C9      C    0.2314767642    0.4759546826   -0.0060996668    8    Uiso    1
C10      C    0.1480526975    0.3081399825   -0.0064528550    9    Uiso    1
C11      C    -0.0079027173    0.7294047730   -0.0045666020    10    Uiso    1
C12      C    0.2372222868    0.7294710580   -0.0058193196    11    Uiso    1
C13      C    0.9005290878    0.0552214918   -0.0053498110    12    Uiso    1
C14      C    0.6552691458    0.0551948254   -0.0054910666    13    Uiso    1
C15      C    0.9047954895    0.8078558743   -0.0041072995    14    Uiso    1
C16      C    0.4893299985    -0.0230515185   -0.0052157911    15    Uiso    1
C17      C    0.4033069226    0.8085106987   -0.0058592661    16    Uiso    1
C18      C    -0.0123165090    -0.0235726405   -0.0044978606    17    Uiso    1
C19      C    0.7339244248    -0.0328252559   -0.0039755592    18    Uiso    1
C20      C    0.1588189040    0.8177270851   -0.0034718642    19    Uiso    1
C21      C    0.7354112621    0.7147303872   -0.0013642298    20    Uiso    1
C22      C    0.4126276530    0.0695058939   -0.0014064713    21    Uiso    1
C23      C    0.4804232770    0.7160738892   -0.0032482024    22    Uiso    1
C24      C    0.1570664425    0.0692501970   -0.0019808454    23    Uiso    1
N25      N    0.6595867483    0.5521937713   0.0006865068    24    Uiso    1
N26      N    0.4997305011    0.2319827161   0.0011763060    25    Uiso    1
C27      C    0.6491467767    0.7973310636   -0.0014004812    26    Uiso    1
N28      N    0.3929691220    0.5523639662   0.0007107940    27    Uiso    1
C29      C    0.2438700010    -0.0124301807   -0.0006244193    28    Uiso    1
N30      N    0.2328094102    0.2320360475   -0.0017945203    29    Uiso    1
Fe31      Fe    0.4452797692    0.3903909858   0.0243512940    30    Uiso    1
Li32      Li    0.4540603790    0.6390903373   0.1913522798    31    Uiso    1
S33      S    0.4419326382    0.3747781852   0.2003457770    32    Uiso    1
S34      S    0.2565183148    0.3818103170   0.2711566130    33    Uiso    1
S35      S    0.5734570375    0.7714870537   0.3603159242    34    Uiso    1
S36      S    0.6751145449    0.6440204977   0.3049463318    35    Uiso    1
Li37      Li    0.4451306963    0.5125835116   0.4218107277    36    Uiso    1
