data_N
_audit_creation_date              2013-05-06
_audit_creation_method            'Materials Studio'
_symmetry_space_group_name_H-M    'P1'
_symmetry_Int_Tables_number       1
_symmetry_cell_setting            triclinic
loop_
_symmetry_equiv_pos_as_xyz
  x,y,z
_cell_length_a                    13.000000078569062
_cell_length_b                    13.00000007856906200000
_cell_length_c                    12.00000107252529404377
_cell_angle_alpha                 90
_cell_angle_beta                  90
_cell_angle_gamma                 90
loop_
_atom_site_label
_atom_site_type_symbol
_atom_site_fract_x
_atom_site_fract_y
_atom_site_fract_z
_atom_site_U_iso_or_equiv
_atom_site_adp_type
_atom_site_occupancy
H1      H    0.1437189429    0.7029203169   0.0439378075    0    Uiso    1
H2      H    0.1339356096    0.3020604007   0.0445204179    1    Uiso    1
H3      H    0.2946874307    0.8476145548   0.0451902400    2    Uiso    1
C4      C    0.2264712908    0.6919771844   0.0463311090    3    Uiso    1
C5      C    0.3021291731    0.7644687920   0.0469426780    4    Uiso    1
H6      H    0.2785929180    0.1512118925   0.0466891746    5    Uiso    1
C7      C    0.2170044133    0.3094624642   0.0487653789    6    Uiso    1
H8      H    0.1404766816    0.5032212757   0.0496795410    7    Uiso    1
C9      C    0.2894134403    0.2339467314   0.0498212344    8    Uiso    1
C10      C    0.2762791568    0.5936205289   0.0493119322    9    Uiso    1
C11      C    0.3982660700    0.7105114511   0.0503610547    10    Uiso    1
C12      C    0.2241890292    0.5009269969   0.0510983562    11    Uiso    1
H13      H    0.4940563181    0.8424651977   0.0531249539    12    Uiso    1
C14      C    0.2713237800    0.4058052338   0.0526886574    13    Uiso    1
H15      H    0.6955572927    0.8408280541   0.0512292764    14    Uiso    1
N16      N    0.3819402869    0.6054640897   0.0503066638    15    Uiso    1
C17      C    0.4929917553    0.7587206656   0.0536656110    16    Uiso    1
H18      H    0.6797067112    0.1444194162   0.0523239866    17    Uiso    1
C19      C    0.3879225829    0.2842134610   0.0543994243    18    Uiso    1
H20      H    0.4799740245    0.1494894049   0.0546990454    19    Uiso    1
N21      N    0.3760313084    0.3895522702   0.0559024160    20    Uiso    1
C22      C    0.6846249972    0.7580802513   0.0541662835    21    Uiso    1
C23      C    0.5860870442    0.7077718701   0.0558231408    22    Uiso    1
C24      C    0.4810658561    0.2332335403   0.0549084096    23    Uiso    1
C25      C    0.6721594743    0.2275766878   0.0533145503    24    Uiso    1
H26      H    0.8304770529    0.2892764577   0.0544655674    25    Uiso    1
H27      H    0.8401835892    0.6901232078   0.0541802584    26    Uiso    1
C28      C    0.7570244521    0.6826308461   0.0555928118    27    Uiso    1
C29      C    0.5758920032    0.2814115786   0.0538415234    28    Uiso    1
C30      C    0.7476893401    0.3001626567   0.0543477633    29    Uiso    1
N31      N    0.5979405510    0.6024587175   0.0579810425    30    Uiso    1
C32      C    0.7026882156    0.5862708853   0.0580359455    31    Uiso    1
N33      N    0.5920577152    0.3864985125   0.0535905661    32    Uiso    1
C34      C    0.6976832877    0.3984679744   0.0554564818    33    Uiso    1
H35      H    0.8334444338    0.4887216245   0.0596169475    34    Uiso    1
C36      C    0.7497356406    0.4911274183   0.0583812918    35    Uiso    1
Fe37      Fe    0.4865937844    0.4959900742   0.0795829864    36    Uiso    1
N38      N    0.4850331078    0.4964147334   0.2097113530    37    Uiso    1
