data_NH
_audit_creation_date              2013-05-06
_audit_creation_method            'Materials Studio'
_symmetry_space_group_name_H-M    'P1'
_symmetry_Int_Tables_number       1
_symmetry_cell_setting            triclinic
loop_
_symmetry_equiv_pos_as_xyz
  x,y,z
_cell_length_a                    13.000000078569062
_cell_length_b                    13.00000007856906200000
_cell_length_c                    12.00000107252529404377
_cell_angle_alpha                 90
_cell_angle_beta                  90
_cell_angle_gamma                 90
loop_
_atom_site_label
_atom_site_type_symbol
_atom_site_fract_x
_atom_site_fract_y
_atom_site_fract_z
_atom_site_U_iso_or_equiv
_atom_site_adp_type
_atom_site_occupancy
Fe1      Fe    0.4872883071    0.4963350336   0.0672164386    0    Uiso    1
N2      N    0.4858147820    0.4955076207   0.2167433847    1    Uiso    1
H3      H    0.5522912383    0.5343025805   0.2424741177    2    Uiso    1
H4      H    0.1434098647    0.7029569823   1.0447081734    3    Uiso    1
H5      H    0.1348308658    0.3030390467   1.0456895682    4    Uiso    1
H6      H    0.2946612080    0.8478703518   1.0451820552    5    Uiso    1
C7      C    0.2261949342    0.6922846119   1.0469902510    6    Uiso    1
C8      C    0.3016601099    0.7646901720   1.0472328866    7    Uiso    1
H9      H    0.2799853118    0.1520686045   1.0475983200    8    Uiso    1
C10      C    0.2179685114    0.3102709240   1.0484492878    9    Uiso    1
H11      H    0.1408279965    0.5032337797   1.0513966400    10    Uiso    1
C12      C    0.2904088405    0.2348944717   1.0493804918    11    Uiso    1
C13      C    0.2764071807    0.5938638939   1.0498083710    12    Uiso    1
C14      C    0.3977949317    0.7104513902   1.0505543211    13    Uiso    1
C15      C    0.2245361675    0.5013060367   1.0511684581    14    Uiso    1
H16      H    0.4941002716    0.8420356345   1.0535196315    15    Uiso    1
C17      C    0.2723360387    0.4065863239   1.0510037162    16    Uiso    1
H18      H    0.6939287534    0.8396359653   1.0507279263    17    Uiso    1
N19      N    0.3819496730    0.6054457524   1.0503886050    18    Uiso    1
C20      C    0.4923512240    0.7583171773   1.0538469239    19    Uiso    1
H21      H    0.6796485406    0.1444038406   1.0521001574    20    Uiso    1
C22      C    0.3887793578    0.2853939639   1.0526850907    21    Uiso    1
H23      H    0.4800292375    0.1501961050   1.0559117776    22    Uiso    1
N24      N    0.3771963638    0.3908294851   1.0524343587    23    Uiso    1
C25      C    0.6832970846    0.7568859059   1.0543346847    24    Uiso    1
C26      C    0.5849402471    0.7066564732   1.0560668316    25    Uiso    1
C27      C    0.4814940792    0.2339238288   1.0551108219    26    Uiso    1
C28      C    0.6724323180    0.2275755882   1.0541045715    27    Uiso    1
H29      H    0.8307957356    0.2893612580   1.0536412253    28    Uiso    1
H30      H    0.8389676819    0.6888441920   1.0536945442    29    Uiso    1
C31      C    0.7558094632    0.6815477447   1.0557903757    30    Uiso    1
C32      C    0.5761815311    0.2818537274   1.0551298186    31    Uiso    1
C33      C    0.7479663209    0.2998823865   1.0548847717    32    Uiso    1
N34      N    0.5964242778    0.6008831337   1.0574818659    33    Uiso    1
C35      C    0.7017036614    0.5853000260   1.0583749683    34    Uiso    1
N36      N    0.5921938566    0.3868737838   1.0548337278    35    Uiso    1
C37      C    0.6978218323    0.3982333019   1.0565368633    36    Uiso    1
H38      H    0.8333117696    0.4889759482   1.0602252573    37    Uiso    1
C39      C    0.7496004303    0.4907029534   1.0590387197    38    Uiso    1
