data_NH2
_audit_creation_date              2013-05-06
_audit_creation_method            'Materials Studio'
_symmetry_space_group_name_H-M    'P1'
_symmetry_Int_Tables_number       1
_symmetry_cell_setting            triclinic
loop_
_symmetry_equiv_pos_as_xyz
  x,y,z
_cell_length_a                    13.000000078569062
_cell_length_b                    13.00000007856906200000
_cell_length_c                    12.00000107252529404377
_cell_angle_alpha                 90
_cell_angle_beta                  90
_cell_angle_gamma                 90
loop_
_atom_site_label
_atom_site_type_symbol
_atom_site_fract_x
_atom_site_fract_y
_atom_site_fract_z
_atom_site_U_iso_or_equiv
_atom_site_adp_type
_atom_site_occupancy
H1      H    0.1342293245    0.3020136113   1.0439214517    0    Uiso    1
H2      H    0.2801532938    0.1522219792   1.0472968630    1    Uiso    1
C3      C    0.2172655333    0.3100117903   1.0475650900    2    Uiso    1
H4      H    0.1393437216    0.5032082237   1.0487239488    3    Uiso    1
C5      C    0.2903579730    0.2350839050   1.0491613379    4    Uiso    1
H6      H    0.1425833989    0.7043426764   1.0427792251    5    Uiso    1
C7      C    0.2230721533    0.5014791723   1.0503231228    6    Uiso    1
C8      C    0.2709169561    0.4066106396   1.0505455651    7    Uiso    1
C9      C    0.2252162172    0.6930361031   1.0470390883    8    Uiso    1
C10      C    0.2747940380    0.5943209445   1.0507295263    9    Uiso    1
C11      C    0.3884568619    0.2858920537   1.0533484843    10    Uiso    1
H12      H    0.4798988069    0.1510536995   1.0553448710    11    Uiso    1
C13      C    0.3012555588    0.7650200669   1.0481575406    12    Uiso    1
H14      H    0.2944944569    0.8481946177   1.0451281348    13    Uiso    1
N15      N    0.3761527420    0.3914265646   1.0534365096    14    Uiso    1
C16      C    0.4816516874    0.2348324155   1.0555954228    15    Uiso    1
N17      N    0.3806371488    0.6053090006   1.0537579899    16    Uiso    1
C18      C    0.3971862768    0.7104335611   1.0529075442    17    Uiso    1
H19      H    0.4942033676    0.8412889117   1.0532579372    18    Uiso    1
C20      C    0.4923963092    0.7575425748   1.0544570542    19    Uiso    1
C21      C    0.5769085714    0.2819176371   1.0559823973    20    Uiso    1
H22      H    0.6797401697    0.1438584283   1.0518359698    21    Uiso    1
C23      C    0.6729002213    0.2270727722   1.0539239431    22    Uiso    1
C24      C    0.5855590110    0.7064520271   1.0551598497    23    Uiso    1
N25      N    0.5935337462    0.3868717534   1.0568489837    24    Uiso    1
N26      N    0.5976797141    0.6007296160   1.0562939226    25    Uiso    1
C27      C    0.6993244884    0.3976557447   1.0563773427    26    Uiso    1
C28      C    0.7490092168    0.2988832634   1.0542963271    27    Uiso    1
C29      C    0.6837260664    0.7569839234   1.0530337512    28    Uiso    1
C30      C    0.7030314487    0.5853528009   1.0562292559    29    Uiso    1
H31      H    0.6940486384    0.8398066287   1.0502767938    30    Uiso    1
C32      C    0.7509442653    0.4904681021   1.0572938934    31    Uiso    1
H33      H    0.8317050579    0.2874917945   1.0524568072    32    Uiso    1
C34      C    0.7566923353    0.6818888157   1.0539387790    33    Uiso    1
H35      H    0.8346885738    0.4888572687   1.0578174638    34    Uiso    1
H36      H    0.8398092505    0.6897297093   1.0519903172    35    Uiso    1
Fe37      Fe    0.4867637946    0.4963252210   0.0716977761    36    Uiso    1
N38      N    0.4850341183    0.5015566254   0.2226293593    37    Uiso    1
H39      H    0.5504099570    0.5314015495   0.2576566421    38    Uiso    1
H40      H    0.4216489581    0.5370353956   0.2556775236    39    Uiso    1
