data_NH3
_audit_creation_date              2013-05-06
_audit_creation_method            'Materials Studio'
_symmetry_space_group_name_H-M    'P1'
_symmetry_Int_Tables_number       1
_symmetry_cell_setting            triclinic
loop_
_symmetry_equiv_pos_as_xyz
  x,y,z
_cell_length_a                    13.000000078569062
_cell_length_b                    13.00000007856906200000
_cell_length_c                    12.00000107252529404377
_cell_angle_alpha                 90
_cell_angle_beta                  90
_cell_angle_gamma                 90
loop_
_atom_site_label
_atom_site_type_symbol
_atom_site_fract_x
_atom_site_fract_y
_atom_site_fract_z
_atom_site_U_iso_or_equiv
_atom_site_adp_type
_atom_site_occupancy
H1      H    0.1350082736    0.3028308645   1.0458255966    0    Uiso    1
H2      H    0.2801234093    0.1518042174   1.0476860639    1    Uiso    1
C3      C    0.2181692672    0.3100880773   1.0480897382    2    Uiso    1
H4      H    0.1408051764    0.5029181838   1.0481177823    3    Uiso    1
C5      C    0.2906490177    0.2346353300   1.0488408639    4    Uiso    1
H6      H    0.1430703427    0.7032377825   1.0454220427    5    Uiso    1
C7      C    0.2245514865    0.5012523687   1.0494212539    6    Uiso    1
C8      C    0.2723894702    0.4064281112   1.0499906145    7    Uiso    1
C9      C    0.2258549908    0.6925916755   1.0470103074    8    Uiso    1
C10      C    0.2761167571    0.5941108591   1.0489397531    9    Uiso    1
C11      C    0.3890932854    0.2849602184   1.0514091157    10    Uiso    1
H12      H    0.4801804043    0.1496194222   1.0515290728    11    Uiso    1
C13      C    0.3013767972    0.7650131764   1.0472233801    12    Uiso    1
H14      H    0.2942369463    0.8481946173   1.0460969397    13    Uiso    1
N15      N    0.3775383363    0.3906736239   1.0519594441    14    Uiso    1
C16      C    0.4819452840    0.2333763645   1.0527622080    15    Uiso    1
N17      N    0.3818300095    0.6055916674   1.0502208253    16    Uiso    1
C18      C    0.3976729441    0.7107286429   1.0493618452    17    Uiso    1
H19      H    0.4940986453    0.8422742300   1.0494984569    18    Uiso    1
C20      C    0.4925074892    0.7585256777   1.0507253972    19    Uiso    1
C21      C    0.5768496953    0.2811554442   1.0538255180    20    Uiso    1
H22      H    0.6805386139    0.1437164952   1.0508205398    21    Uiso    1
C23      C    0.6732466669    0.2268894247   1.0530542631    22    Uiso    1
C24      C    0.5853459664    0.7069819580   1.0524665991    23    Uiso    1
N25      N    0.5925347781    0.3863292423   1.0551254423    24    Uiso    1
N26      N    0.5968498743    0.6012644532   1.0543110511    25    Uiso    1
C27      C    0.6982257706    0.3978362263   1.0554190086    26    Uiso    1
C28      C    0.7486663475    0.2994021891   1.0540859239    27    Uiso    1
C29      C    0.6838030408    0.7573197481   1.0520609223    28    Uiso    1
C30      C    0.7020397214    0.5855313189   1.0550683076    29    Uiso    1
H31      H    0.6943335410    0.8401514692   1.0501237802    30    Uiso    1
C32      C    0.7498189999    0.4906683444   1.0560662317    31    Uiso    1
H33      H    0.8315299058    0.2889956288   1.0530945909    32    Uiso    1
C34      C    0.7562891946    0.6818743581   1.0536462143    33    Uiso    1
H35      H    0.8335747621    0.4889590435   1.0558104399    34    Uiso    1
H36      H    0.8395169952    0.6890631565   1.0535549454    35    Uiso    1
Fe37      Fe    0.4869794381    0.4959531729   0.0603819324    36    Uiso    1
N38      N    0.4827335987    0.4989056722   0.2432772278    37    Uiso    1
H39      H    0.5472294618    0.5335701878   0.2741166200    38    Uiso    1
H40      H    0.4200987238    0.5402389444   0.2684535462    39    Uiso    1
H41      H    0.4775765706    0.4267284113   0.2763661938    40    Uiso    1
