data_NO2
_audit_creation_date              2013-05-06
_audit_creation_method            'Materials Studio'
_symmetry_space_group_name_H-M    'P1'
_symmetry_Int_Tables_number       1
_symmetry_cell_setting            triclinic
loop_
_symmetry_equiv_pos_as_xyz
  x,y,z
_cell_length_a                    13.000000078569062
_cell_length_b                    13.00000007856906200000
_cell_length_c                    12.00000107252529404377
_cell_angle_alpha                 90
_cell_angle_beta                  90
_cell_angle_gamma                 90
loop_
_atom_site_label
_atom_site_type_symbol
_atom_site_fract_x
_atom_site_fract_y
_atom_site_fract_z
_atom_site_U_iso_or_equiv
_atom_site_adp_type
_atom_site_occupancy
H1      H    0.1361639931    0.3037976371   1.0526883501    0    Uiso    1
H2      H    0.2807323031    0.1521863776   1.0541111832    1    Uiso    1
C3      C    0.2193691062    0.3106782590   1.0533205342    2    Uiso    1
H4      H    0.1424385171    0.5030126438   1.0527929421    3    Uiso    1
C5      C    0.2914694086    0.2349816951   1.0540749584    4    Uiso    1
H6      H    0.1441212344    0.7023539874   1.0512387072    5    Uiso    1
C7      C    0.2261662906    0.5013783246   1.0530818990    6    Uiso    1
C8      C    0.2738945952    0.4067121585   1.0533670152    7    Uiso    1
C9      C    0.2269703502    0.6921928623   1.0518883942    8    Uiso    1
C10      C    0.2776121144    0.5940718645   1.0527268990    9    Uiso    1
C11      C    0.3900230156    0.2848472502   1.0544928172    10    Uiso    1
H12      H    0.4806407028    0.1491534562   1.0563868764    11    Uiso    1
C13      C    0.3020533363    0.7649572175   1.0523262460    12    Uiso    1
H14      H    0.2944724606    0.8480800515   1.0522839569    13    Uiso    1
N15      N    0.3788577304    0.3905667387   1.0532275388    14    Uiso    1
C16      C    0.4824490913    0.2328732884   1.0555124252    15    Uiso    1
N17      N    0.3831288392    0.6059794648   1.0527493864    16    Uiso    1
C18      C    0.3984854055    0.7111397353   1.0533056065    17    Uiso    1
H19      H    0.4945912736    0.8429944342   1.0547274750    18    Uiso    1
C20      C    0.4929541212    0.7592781421   1.0545043990    19    Uiso    1
C21      C    0.5770024797    0.2809659126   1.0552850472    20    Uiso    1
H22      H    0.6812266756    0.1441305760   1.0558168375    21    Uiso    1
C23      C    0.6735525386    0.2272682987   1.0562065059    22    Uiso    1
C24      C    0.5853769764    0.7073990698   1.0554056985    23    Uiso    1
N25      N    0.5921835246    0.3861745240   1.0546599446    24    Uiso    1
N26      N    0.5964246187    0.6016774153   1.0553575299    25    Uiso    1
C27      C    0.6976400656    0.3981692315   1.0573452764    26    Uiso    1
C28      C    0.7485228768    0.3001505967   1.0575559880    27    Uiso    1
C29      C    0.6839643780    0.7572003001   1.0566463726    28    Uiso    1
C30      C    0.7013414682    0.5855105548   1.0580702774    29    Uiso    1
H31      H    0.6949293074    0.8399591140   1.0564664002    30    Uiso    1
C32      C    0.7490041655    0.4908648874   1.0593808142    31    Uiso    1
H33      H    0.8314362976    0.2902476113   1.0583552886    32    Uiso    1
C34      C    0.7559836833    0.6814510750   1.0583760057    33    Uiso    1
H35      H    0.8326804772    0.4892108119   1.0617773602    34    Uiso    1
H36      H    0.8392239758    0.6879843312   1.0595143152    35    Uiso    1
Fe37      Fe    0.4874192426    0.4961355515   0.0674378526    36    Uiso    1
N38      N    0.4860905200    0.4956825646   0.2225003065    37    Uiso    1
O39      O    0.4012940404    0.4983606855   0.2684486315    38    Uiso    1
O40      O    0.5703687986    0.4922912994   0.2695259371    39    Uiso    1
