data_NO3
_audit_creation_date              2013-05-06
_audit_creation_method            'Materials Studio'
_symmetry_space_group_name_H-M    'P1'
_symmetry_Int_Tables_number       1
_symmetry_cell_setting            triclinic
loop_
_symmetry_equiv_pos_as_xyz
  x,y,z
_cell_length_a                    13.000000078569062
_cell_length_b                    13.00000007856906200000
_cell_length_c                    12.00000107252529404377
_cell_angle_alpha                 90
_cell_angle_beta                  90
_cell_angle_gamma                 90
loop_
_atom_site_label
_atom_site_type_symbol
_atom_site_fract_x
_atom_site_fract_y
_atom_site_fract_z
_atom_site_U_iso_or_equiv
_atom_site_adp_type
_atom_site_occupancy
H1      H    0.1400381836    0.2990970093   1.0521919299    0    Uiso    1
H2      H    0.2849136609    0.1483119151   1.0486801394    1    Uiso    1
C3      C    0.2231953703    0.3066078735   1.0513544327    2    Uiso    1
H4      H    0.1458685480    0.4995331412   1.0556681934    3    Uiso    1
C5      C    0.2957902379    0.2310867378   1.0496299604    4    Uiso    1
H6      H    0.1481935225    0.7002362180   1.0528633744    5    Uiso    1
C7      C    0.2295665459    0.4978943363   1.0544057670    6    Uiso    1
C8      C    0.2772174891    0.4029196415   1.0524866468    7    Uiso    1
C9      C    0.2309648065    0.6892005136   1.0529543367    8    Uiso    1
C10      C    0.2809172339    0.5909697873   1.0543156410    9    Uiso    1
C11      C    0.3941992256    0.2812426897   1.0497153830    10    Uiso    1
H12      H    0.4859577403    0.1463079833   1.0483881469    11    Uiso    1
C13      C    0.3065334461    0.7619437690   1.0518695424    12    Uiso    1
H14      H    0.2988548503    0.8450687352   1.0506116779    13    Uiso    1
N15      N    0.3820379070    0.3866765467   1.0509188856    14    Uiso    1
C16      C    0.4873760021    0.2300236197   1.0490230854    15    Uiso    1
N17      N    0.3865823841    0.6030873289   1.0542890606    16    Uiso    1
C18      C    0.4027833158    0.7082468959   1.0525928730    17    Uiso    1
H19      H    0.4992951109    0.8397210145   1.0505744970    18    Uiso    1
C20      C    0.4977358850    0.7560103917   1.0507471555    19    Uiso    1
C21      C    0.5824108303    0.2778369542   1.0492392936    20    Uiso    1
H22      H    0.6864697051    0.1409816512   1.0469096399    21    Uiso    1
C23      C    0.6787007621    0.2240982703   1.0480416768    22    Uiso    1
C24      C    0.5908751623    0.7047910282   1.0490167765    23    Uiso    1
N25      N    0.5986635565    0.3828199051   1.0505089640    24    Uiso    1
N26      N    0.6031119530    0.5994269933   1.0489508476    25    Uiso    1
C27      C    0.7042118969    0.3950839805   1.0500419257    26    Uiso    1
C28      C    0.7542812025    0.2968474752   1.0487127401    27    Uiso    1
C29      C    0.6891854487    0.7551144280   1.0477258245    28    Uiso    1
C30      C    0.7079832727    0.5832885514   1.0488766407    29    Uiso    1
H31      H    0.6999672831    0.8379214516   1.0472254629    30    Uiso    1
C32      C    0.7555817329    0.4882396639   1.0498827636    31    Uiso    1
H33      H    0.8370691927    0.2859455608   1.0483512951    32    Uiso    1
C34      C    0.7618963697    0.6797248162   1.0478120669    33    Uiso    1
H35      H    0.8392818740    0.4864486740   1.0499979314    34    Uiso    1
H36      H    0.8450327882    0.6875331907   1.0473200643    35    Uiso    1
Fe37      Fe    0.4927701918    0.4927185946   0.0699353662    36    Uiso    1
N38      N    0.4378655719    0.5462032603   0.3010090920    37    Uiso    1
O39      O    0.3487170428    0.5150266535   0.3145030546    38    Uiso    1
O40      O    0.4998236005    0.4900798153   0.2336115044    39    Uiso    1
O41      O    0.4764296166    0.6234354983   0.3444866466    40    Uiso    1
