data_OHHCOH
_audit_creation_date              2013-05-06
_audit_creation_method            'Materials Studio'
_symmetry_space_group_name_H-M    'P1'
_symmetry_Int_Tables_number       1
_symmetry_cell_setting            triclinic
loop_
_symmetry_equiv_pos_as_xyz
  x,y,z
_cell_length_a                    13.000000078569062
_cell_length_b                    13.00000007856906200000
_cell_length_c                    12.00000107252529404377
_cell_angle_alpha                 90
_cell_angle_beta                  90
_cell_angle_gamma                 90
loop_
_atom_site_label
_atom_site_type_symbol
_atom_site_fract_x
_atom_site_fract_y
_atom_site_fract_z
_atom_site_U_iso_or_equiv
_atom_site_adp_type
_atom_site_occupancy
H1      H    0.1377046342    0.3024659162   1.0688343849    0    Uiso    1
H2      H    0.1463028961    0.7038714088   1.0475203384    1    Uiso    1
H3      H    0.2827409074    0.1514258317   1.0724205558    2    Uiso    1
C4      C    0.2208621724    0.3101459416   1.0681950074    3    Uiso    1
H5      H    0.1437261669    0.5031980915   1.0598064471    4    Uiso    1
C6      C    0.2936957593    0.2341840092   1.0697367872    5    Uiso    1
C7      C    0.2290017497    0.6927457011   1.0508414342    6    Uiso    1
H8      H    0.2975352797    0.8478574810   1.0485991521    7    Uiso    1
H9      H    0.6830599280    0.1411608589   1.0464763000    8    Uiso    1
C10      C    0.2274688832    0.5014742123   1.0599649320    9    Uiso    1
C11      C    0.3044548336    0.7646880091   1.0513051823    10    Uiso    1
C12      C    0.2747229764    0.4058732965   1.0639945608    11    Uiso    1
C13      C    0.2791621661    0.5937746582   1.0554200417    12    Uiso    1
H14      H    0.8339310272    0.2854988507   1.0404176997    13    Uiso    1
H15      H    0.4822452452    0.1480241447   1.0658894211    14    Uiso    1
H16      H    0.6982151165    0.8381533776   1.0544532221    15    Uiso    1
C17      C    0.3916414558    0.2837322842   1.0665099318    16    Uiso    1
C18      C    0.6759720872    0.2242794231   1.0505124139    17    Uiso    1
H19      H    0.8429112565    0.6869441586   1.0506497684    18    Uiso    1
N20      N    0.3800322063    0.3896477454   1.0630378366    19    Uiso    1
C21      C    0.7514376977    0.2964832820   1.0476429266    20    Uiso    1
C22      C    0.4847266551    0.2317440329   1.0644699916    21    Uiso    1
N23      N    0.3850128639    0.6047594577   1.0571527363    22    Uiso    1
C24      C    0.4009722826    0.7099838870   1.0552585809    23    Uiso    1
C25      C    0.6870618373    0.7553777732   1.0545829499    24    Uiso    1
C26      C    0.5797178026    0.2785584770   1.0591153450    25    Uiso    1
H27      H    0.4975629038    0.8409698809   1.0568167123    26    Uiso    1
C28      C    0.7597747920    0.6793753512   1.0528290664    27    Uiso    1
C29      C    0.4956626046    0.7572460496   1.0567751257    28    Uiso    1
C30      C    0.5890414017    0.7056509353   1.0561590023    29    Uiso    1
N31      N    0.5958585527    0.3843735628   1.0618477019    30    Uiso    1
C32      C    0.7019945911    0.3954178516   1.0544198437    31    Uiso    1
C33      C    0.7058252412    0.5835754068   1.0540398882    32    Uiso    1
N34      N    0.6005248102    0.5998048109   1.0554956376    33    Uiso    1
H35      H    0.8371093041    0.4866088750   1.0492634398    34    Uiso    1
C36      C    0.7533878622    0.4880689198   1.0528611290    35    Uiso    1
Fe37      Fe    0.4895159927    0.4949274474   0.0716464166    36    Uiso    1
C38      C    0.4842288255    0.4937303966   0.2424254609    37    Uiso    1
H39      H    0.5461945782    0.5504441803   0.2552701682    38    Uiso    1
O40      O    0.5042202839    0.3965080986   0.2851693137    39    Uiso    1
O41      O    0.3956287523    0.5313009473   0.2888382005    40    Uiso    1
H42      H    0.5550642987    0.3634205069   0.2366344655    41    Uiso    1
H43      H    0.3445793182    0.4758444685   0.2890904798    42    Uiso    1
