data_S8
_audit_creation_date              2013-05-06
_audit_creation_method            'Materials Studio'
_symmetry_space_group_name_H-M    'P1'
_symmetry_Int_Tables_number       1
_symmetry_cell_setting            triclinic
loop_
_symmetry_equiv_pos_as_xyz
  x,y,z
_cell_length_a                    9.840000144139096
_cell_length_b                    9.84000014413909600000
_cell_length_c                    11.83250177332582154904
_cell_angle_alpha                 90
_cell_angle_beta                  90
_cell_angle_gamma                 120
loop_
_atom_site_label
_atom_site_type_symbol
_atom_site_fract_x
_atom_site_fract_y
_atom_site_fract_z
_atom_site_U_iso_or_equiv
_atom_site_adp_type
_atom_site_occupancy
C1      C    0.0070376884    0.4975823806   0.0034976670    0    Uiso    1
C2      C    0.9233093627    0.3301973836   0.0035681728    1    Uiso    1
C3      C    0.9279769962    0.5831562303   0.0020106652    2    Uiso    1
C4      C    0.1715966004    0.5831311164   0.0026355269    3    Uiso    1
C5      C    0.7586804360    0.2446160873   0.0028413264    4    Uiso    1
C6      C    0.0023361728    0.2446083061   0.0019099137    5    Uiso    1
C7      C    0.7638115050    0.4972629081   -0.0002259767    6    Uiso    1
C8      C    0.6804442709    0.3305484528   0.0008689902    7    Uiso    1
C9      C    0.2498886017    0.4972976092   0.0006526325    8    Uiso    1
C10      C    0.1665067974    0.3305135586   -0.0004674301    9    Uiso    1
C11      C    0.0110548751    0.7508366266   0.0011770176    10    Uiso    1
C12      C    0.2562970311    0.7508281817   0.0021988635    11    Uiso    1
C13      C    0.9192705828    0.0769283719   0.0010142036    12    Uiso    1
C14      C    0.6740451517    0.0769592413   0.0022145501    13    Uiso    1
C15      C    0.9239261570    0.8298029830   0.0001717262    14    Uiso    1
C16      C    0.5079725558    -0.0020111079   0.0017502264    15    Uiso    1
C17      C    0.4223213509    0.8297696398   0.0016992838    16    Uiso    1
C18      C    0.0064288954    -0.0019986503   0.0000563996    17    Uiso    1
C19      C    0.7527045661    -0.0109557975   0.0013156159    18    Uiso    1
C20      C    0.1775882048    0.8387396912   0.0014702144    19    Uiso    1
C21      C    0.7544173867    0.7373111666   -0.0011725763    20    Uiso    1
C22      C    0.4310480237    0.0905452362   0.0005344806    21    Uiso    1
C23      C    0.4992847790    0.7373035507   0.0004381658    22    Uiso    1
C24      C    0.1759185963    0.0905047924   -0.0013094544    23    Uiso    1
N25      N    0.6793081722    0.5751819932   -0.0033301018    24    Uiso    1
N26      N    0.5179826569    0.2526231116   -0.0008459055    25    Uiso    1
C27      C    0.6678166370    0.8192818950   -0.0000241327    26    Uiso    1
N28      N    0.4123134531    0.5751956821   -0.0006241038    27    Uiso    1
C29      C    0.2624968190    0.0085277753   0.0002037843    28    Uiso    1
N30      N    0.2510396877    0.2525758168   -0.0037649088    29    Uiso    1
Fe31      Fe    0.4651390807    0.4138480657   -0.0024650462    30    Uiso    1
S32      S    0.7176428076    0.5964617353   0.2762486375    31    Uiso    1
S33      S    0.1958127043    0.2325256436   0.2734616059    32    Uiso    1
S34      S    0.1980440506    0.4361293384   0.3345798902    33    Uiso    1
S35      S    0.5921409740    0.7217038865   0.3165520004    34    Uiso    1
S36      S    0.5124822932    0.2203874007   0.3424396983    35    Uiso    1
S37      S    0.6786305562    0.4428440402   0.4028310123    36    Uiso    1
S38      S    0.2875166956    0.1549612322   0.3968811277    37    Uiso    1
S39      S    0.4081620172    0.5768626045   0.4162258110    38    Uiso    1
