data_SO2
_audit_creation_date              2013-05-06
_audit_creation_method            'Materials Studio'
_symmetry_space_group_name_H-M    'P1'
_symmetry_Int_Tables_number       1
_symmetry_cell_setting            triclinic
loop_
_symmetry_equiv_pos_as_xyz
  x,y,z
_cell_length_a                    13.000000078569062
_cell_length_b                    13.00000007856906200000
_cell_length_c                    12.00000107252529404377
_cell_angle_alpha                 90
_cell_angle_beta                  90
_cell_angle_gamma                 90
loop_
_atom_site_label
_atom_site_type_symbol
_atom_site_fract_x
_atom_site_fract_y
_atom_site_fract_z
_atom_site_U_iso_or_equiv
_atom_site_adp_type
_atom_site_occupancy
H1      H    0.1359149296    0.3044813907   1.0504554909    0    Uiso    1
H2      H    0.2810202278    0.1534248302   1.0538952325    1    Uiso    1
C3      C    0.2190252853    0.3116239034   1.0538897692    2    Uiso    1
H4      H    0.1413132797    0.5039250542   1.0539056180    3    Uiso    1
C5      C    0.2914671964    0.2362394128   1.0556036153    4    Uiso    1
H6      H    0.1436107852    0.7041237052   1.0487301650    5    Uiso    1
C7      C    0.2250125469    0.5024388242   1.0551634704    6    Uiso    1
C8      C    0.2730351583    0.4079147528   1.0562625552    7    Uiso    1
C9      C    0.2263920347    0.6936192221   1.0512892877    8    Uiso    1
C10      C    0.2765164800    0.5952135975   1.0542974620    9    Uiso    1
C11      C    0.3897871436    0.2864608548   1.0590435453    10    Uiso    1
H12      H    0.4806805816    0.1510539802   1.0613399581    11    Uiso    1
C13      C    0.3019199850    0.7659720390   1.0515995220    12    Uiso    1
H14      H    0.2949431592    0.8491401769   1.0494036809    13    Uiso    1
N15      N    0.3781402259    0.3920799943   1.0585899503    14    Uiso    1
C16      C    0.4824160432    0.2347816578   1.0609748102    15    Uiso    1
N17      N    0.3819555378    0.6067686269   1.0556520929    16    Uiso    1
C18      C    0.3981145900    0.7116885587   1.0546227799    17    Uiso    1
H19      H    0.4945637558    0.8430890244   1.0546352046    18    Uiso    1
C20      C    0.4929417961    0.7593824525   1.0555625393    19    Uiso    1
C21      C    0.5770950373    0.2826373613   1.0603335451    20    Uiso    1
H22      H    0.6806047173    0.1454067608   1.0563806617    21    Uiso    1
C23      C    0.6733925268    0.2285590573   1.0582270604    22    Uiso    1
C24      C    0.5858034104    0.7079642727   1.0557583444    23    Uiso    1
N25      N    0.5928445878    0.3876995178   1.0602841095    24    Uiso    1
N26      N    0.5976724549    0.6024652270   1.0569758016    25    Uiso    1
C27      C    0.6984933857    0.3993693370   1.0597797851    26    Uiso    1
C28      C    0.7487517424    0.3010410515   1.0579970749    27    Uiso    1
C29      C    0.6841319663    0.7583094464   1.0544111032    28    Uiso    1
C30      C    0.7025653195    0.5866491416   1.0576775315    29    Uiso    1
H31      H    0.6945035937    0.8411202059   1.0522880186    30    Uiso    1
C32      C    0.7502660849    0.4918763995   1.0597491871    31    Uiso    1
H33      H    0.8315545485    0.2905919881   1.0560767997    32    Uiso    1
C34      C    0.7566681769    0.6829304490   1.0555872267    33    Uiso    1
H35      H    0.8339720671    0.4900217521   1.0603301326    34    Uiso    1
H36      H    0.8398214958    0.6901689460   1.0547104863    35    Uiso    1
Fe37      Fe    0.4874775366    0.4973218748   0.0715219546    36    Uiso    1
S38      S    0.4852572359    0.4963798542   0.2560278464    37    Uiso    1
O39      O    0.3855839616    0.4752119158   0.3092052427    38    Uiso    1
O40      O    0.5794494083    0.4617233826   0.3126013387    39    Uiso    1
