data_toluene
_audit_creation_date              2013-05-06
_audit_creation_method            'Materials Studio'
_symmetry_space_group_name_H-M    'P1'
_symmetry_Int_Tables_number       1
_symmetry_cell_setting            triclinic
loop_
_symmetry_equiv_pos_as_xyz
  x,y,z
_cell_length_a                    13.000000078569062
_cell_length_b                    13.00000007856906200000
_cell_length_c                    12.00000107252529404377
_cell_angle_alpha                 90
_cell_angle_beta                  90
_cell_angle_gamma                 90
loop_
_atom_site_label
_atom_site_type_symbol
_atom_site_fract_x
_atom_site_fract_y
_atom_site_fract_z
_atom_site_U_iso_or_equiv
_atom_site_adp_type
_atom_site_occupancy
H1      H    0.1346061647    0.3029329456   0.9969000767    0    Uiso    1
H2      H    0.2782046751    0.1513506612   1.0152386071    1    Uiso    1
C3      C    0.2173077552    0.3098629079   1.0068429920    2    Uiso    1
H4      H    0.1415654848    0.5026023956   0.9924629212    3    Uiso    1
C5      C    0.2889883420    0.2341606241   1.0157781975    4    Uiso    1
H6      H    0.1455337189    0.7028430830   0.9856617414    5    Uiso    1
C7      C    0.2247495129    0.5007166811   1.0026974736    6    Uiso    1
C8      C    0.2718221204    0.4059655818   1.0110576170    7    Uiso    1
C9      C    0.2274249959    0.6918501113   0.9986604806    8    Uiso    1
C10      C    0.2766498989    0.5931972213   1.0070120864    9    Uiso    1
C11      C    0.3872423364    0.2841251429   1.0250200000    10    Uiso    1
H12      H    0.4774744028    0.1483072612   1.0323778886    11    Uiso    1
C13      C    0.3023670894    0.7639736757   1.0109435583    12    Uiso    1
H14      H    0.2955885780    0.8471955160   1.0100369020    13    Uiso    1
N15      N    0.3763246412    0.3898385257   1.0228221853    14    Uiso    1
C16      C    0.4794780896    0.2320595325   1.0322863259    15    Uiso    1
N17      N    0.3814371529    0.6041891888   1.0225670967    16    Uiso    1
C18      C    0.3974206411    0.7093032000   1.0258717956    17    Uiso    1
H19      H    0.4930946640    0.8405080591   1.0436651770    18    Uiso    1
C20      C    0.4912671324    0.7567640623   1.0415995435    19    Uiso    1
C21      C    0.5742254762    0.2796066137   1.0379420495    20    Uiso    1
H22      H    0.6773348915    0.1418734987   1.0399350264    21    Uiso    1
C23      C    0.6703061451    0.2250535949   1.0423071124    22    Uiso    1
C24      C    0.5833033375    0.7047822487   1.0521991077    23    Uiso    1
N25      N    0.5901277890    0.3846837996   1.0407980526    24    Uiso    1
N26      N    0.5946638680    0.5990273069   1.0494984475    25    Uiso    1
C27      C    0.6956733464    0.3958245525   1.0485604953    26    Uiso    1
C28      C    0.7457911316    0.2972750660   1.0485975811    27    Uiso    1
C29      C    0.6812812052    0.7547044805   1.0643842444    28    Uiso    1
C30      C    0.6994731656    0.5830256273   1.0589142759    29    Uiso    1
H31      H    0.6918208432    0.8374778832   1.0682078225    30    Uiso    1
C32      C    0.7472292564    0.4882120331   1.0578415468    31    Uiso    1
H33      H    0.8284928158    0.2865917488   1.0529340778    32    Uiso    1
C34      C    0.7534470216    0.6790885306   1.0684461780    33    Uiso    1
H35      H    0.8307227184    0.4861389145   1.0646186551    34    Uiso    1
H36      H    0.8362627943    0.6860258248   1.0770676064    35    Uiso    1
Fe37      Fe    0.4851856637    0.4942063234   0.0375100505    36    Uiso    1
H38      H    0.2559698267    0.6618442649   0.2256386203    37    Uiso    1
C39      C    0.2890621427    0.4447211318   0.3196397563    38    Uiso    1
C40      C    0.3437754626    0.3524789204   0.3164027070    39    Uiso    1
C41      C    0.4498328522    0.3532057712   0.3004437905    40    Uiso    1
C42      C    0.5005147450    0.4469479851   0.2860487093    41    Uiso    1
C43      C    0.4451903247    0.5390059488   0.2887093588    42    Uiso    1
C44      C    0.3386759577    0.5393197797   0.3067647964    43    Uiso    1
H45      H    0.2058953801    0.4432459334   0.3321179293    44    Uiso    1
H46      H    0.3031182257    0.2796623838   0.3260633964    45    Uiso    1
H47      H    0.4928395950    0.2813346937   0.2975949436    46    Uiso    1
H48      H    0.5834948792    0.4485542907   0.2735752545    47    Uiso    1
H49      H    0.4855085347    0.6119031653   0.2778458941    48    Uiso    1
C50      C    0.2795113027    0.6385322379   0.3099686702    49    Uiso    1
H51      H    0.3261782171    0.7013011287   0.3443632559    50    Uiso    1
H52      H    0.2095236878    0.6312579404   0.3605279211    51    Uiso    1
