data_Zn
_audit_creation_date              2013-05-06
_audit_creation_method            'Materials Studio'
_symmetry_space_group_name_H-M    'P1'
_symmetry_Int_Tables_number       1
_symmetry_cell_setting            triclinic
loop_
_symmetry_equiv_pos_as_xyz
  x,y,z
_cell_length_a                    9.840000144139096
_cell_length_b                    9.84000014413909600000
_cell_length_c                    11.83250177332582154904
_cell_angle_alpha                 90
_cell_angle_beta                  90
_cell_angle_gamma                 120
loop_
_atom_site_label
_atom_site_type_symbol
_atom_site_fract_x
_atom_site_fract_y
_atom_site_fract_z
_atom_site_U_iso_or_equiv
_atom_site_adp_type
_atom_site_occupancy
C1      C    0.0013133306    0.0035751320   -0.0105094865    0    Uiso    1
C2      C    0.1706278595    0.0961527961   -0.0089470878    1    Uiso    1
C3      C    0.2574051460    0.0143827054   -0.0083554254    2    Uiso    1
C4      C    0.4259460520    0.0961580047   -0.0089253300    3    Uiso    1
C5      C    0.5026856680    0.0035782867   -0.0105002279    4    Uiso    1
C6      C    0.6686845028    0.0822233840   -0.0108415512    5    Uiso    1
C7      C    0.7473188129    -0.0057838449   -0.0099547781    6    Uiso    1
C8      C    0.9139613706    0.0822220251   -0.0108471112    7    Uiso    1
C9      C    -0.0029368493    0.2499760393   -0.0121431168    8    Uiso    1
C10      C    0.1613081255    0.3357841747   -0.0113684409    9    Uiso    1
N11      N    0.2464523999    0.2589663793   -0.0080568174    10    Uiso    1
N12      N    0.5129295938    0.2589713491   -0.0080069017    11    Uiso    1
C13      C    0.6748924853    0.3357845450   -0.0113245705    12    Uiso    1
C14      C    0.7533342969    0.2499748999   -0.0121267019    13    Uiso    1
C15      C    0.9180511153    0.3356857498   -0.0128384271    14    Uiso    1
C16      C    0.0017654455    0.5030970756   -0.0128455394    15    Uiso    1
C17      C    0.1664788296    0.5888029809   -0.0121616626    16    Uiso    1
C18      C    0.2449255151    0.5029761984   -0.0113865320    17    Uiso    1
N19      N    0.4068799904    0.5797404136   -0.0080708193    18    Uiso    1
N20      N    0.6732811621    0.5797294080   -0.0080270587    19    Uiso    1
C21      C    0.7584731781    0.5029714714   -0.0113458580    20    Uiso    1
C22      C    0.9227408122    0.5888023231   -0.0121480973    21    Uiso    1
C23      C    0.0058540161    0.7565565535   -0.0108528233    22    Uiso    1
C24      C    0.1724836534    0.8445484144   -0.0099431779    23    Uiso    1
C25      C    0.2511328265    0.7565595852   -0.0108539092    24    Uiso    1
C26      C    0.4171226884    0.8351987197   -0.0105211762    25    Uiso    1
C27      C    0.4938613655    0.7425915754   -0.0089733390    26    Uiso    1
C28      C    0.6624121818    0.8243974089   -0.0083836315    27    Uiso    1
C29      C    0.7491496983    0.7425848911   -0.0089594126    28    Uiso    1
C30      C    0.9184941527    0.8351929211   -0.0105192635    29    Uiso    1
Fe31      Fe    0.4598690166    0.4193299061   0.0042001663    30    Uiso    1
Zn32      Zn    0.4584074929    0.4181721727   0.2229689217    31    Uiso    1
